
##########################################################################
#               Crystallographic Information Format file
#               Produced by PyCifRW module
#
#  This is a CIF file.  CIF has been adopted by the International
#  Union of Crystallography as the standard for data archiving and
#  transmission.
#
#  For information on this file format, follow the CIF links at
#  http://www.iucr.org
##########################################################################

data_image0

_cell_length_a                          14.6868
_cell_length_b                          14.6868
_cell_length_c                          14.6868
_cell_angle_alpha                       109.471
_cell_angle_beta                        109.471
_cell_angle_gamma                       109.471
_symmetry_space_group_name_H-M          'P 1'
_symmetry_int_tables_number             1
loop_
  _symmetry_equiv_pos_as_xyz
         'x, y, z' 
loop_
  _atom_site_label
  _atom_site_occupancy
  _atom_site_fract_x
  _atom_site_fract_y
  _atom_site_fract_z
  _atom_site_thermal_displace_type
  _atom_site_B_iso_or_equiv
  _atom_site_type_symbol
  _atom_site_charge
         C1        1.0000    0.37000   0.61680   0.00000   Biso      1.000     C          0.391344  
         C2        1.0000    0.73470   0.94520   0.41450   Biso      1.000     C          -0.067842           
         C3        1.0000    0.26530   0.67980   0.21050   Biso      1.000     C          -0.06934  
         C4        1.0000    0.41450   0.73470   0.94520   Biso      1.000     C          -0.068676           
         C5        1.0000    0.21050   0.26530   0.67980   Biso      1.000     C          -0.068794           
         C6        1.0000    0.58550   0.32020   0.53070   Biso      1.000     C          -0.068676           
         C7        1.0000    0.78950   0.05480   0.46930   Biso      1.000     C          -0.065071           
         C8        1.0000    0.21050   0.67980   0.26530   Biso      1.000     C          -0.067812           
         C9        1.0000    0.41450   0.94520   0.73470   Biso      1.000     C          -0.067007           
         C10       1.0000    0.26530   0.21050   0.67980   Biso      1.000     C          -0.066226           
         C11       1.0000    0.53070   0.32020   0.58550   Biso      1.000     C          -0.064039           
         C12       1.0000    0.73470   0.41450   0.94520   Biso      1.000     C          -0.070449           
         C13       1.0000    0.46930   0.78950   0.05480   Biso      1.000     C          -0.063992           
         C14       1.0000    0.05480   0.46930   0.78950   Biso      1.000     C          -0.064861           
         C15       1.0000    0.32020   0.53070   0.58550   Biso      1.000     C          -0.067098           
         C16       1.0000    0.94520   0.73470   0.41450   Biso      1.000     C          -0.068142           
         C17       1.0000    0.67980   0.26530   0.21050   Biso      1.000     C          -0.066322           
         C18       1.0000    0.05480   0.78950   0.46930   Biso      1.000     C          -0.065279           
         C19       1.0000    0.32020   0.58550   0.53070   Biso      1.000     C          -0.065985           
         C20       1.0000    0.94520   0.41450   0.73470   Biso      1.000     C          -0.068542           
         C21       1.0000    0.67980   0.21050   0.26530   Biso      1.000     C          -0.067878           
         C22       1.0000    0.53070   0.58550   0.32020   Biso      1.000     C          -0.065876           
         C23       1.0000    0.46930   0.05480   0.78950   Biso      1.000     C          -0.065791           
         C24       1.0000    0.63000   0.24680   0.63000   Biso      1.000     C          0.391659  
         C25       1.0000    0.67860   0.18860   0.67860   Biso      1.000     C          -0.44767  
         C26       1.0000    0.81140   0.49000   0.49000   Biso      1.000     C          -0.445922           
         C27       1.0000    0.75320   0.38320   0.38320   Biso      1.000     C          0.400677  
         C28       1.0000    0.00000   0.51000   0.32140   Biso      1.000     C          -0.446287           
         C29       1.0000    0.00000   0.61680   0.37000   Biso      1.000     C          0.395967  
         C30       1.0000    0.18860   0.67860   0.67860   Biso      1.000     C          -0.4483   
         C31       1.0000    0.24680   0.63000   0.63000   Biso      1.000     C          0.39133   
         C32       1.0000    0.00000   0.32140   0.51000   Biso      1.000     C          -0.445591           
         C33       1.0000    0.00000   0.37000   0.61680   Biso      1.000     C          0.392648  
         C34       1.0000    0.32140   0.51000   0.00000   Biso      1.000     C          -0.447536           
         C35       1.0000    0.67860   0.67860   0.18860   Biso      1.000     C          -0.447736           
         C36       1.0000    0.63000   0.63000   0.24680   Biso      1.000     C          0.393903  
         C37       1.0000    0.51000   0.32140   0.00000   Biso      1.000     C          -0.447852           
         C38       1.0000    0.61680   0.37000   0.00000   Biso      1.000     C          0.397766  
         C39       1.0000    0.49000   0.49000   0.81140   Biso      1.000     C          -0.445923           
         C40       1.0000    0.38320   0.38320   0.75320   Biso      1.000     C          0.397387  
         C41       1.0000    0.32140   0.00000   0.51000   Biso      1.000     C          -0.447754           
         C42       1.0000    0.37000   0.00000   0.61680   Biso      1.000     C          0.393651  
         C43       1.0000    0.49000   0.81140   0.49000   Biso      1.000     C          -0.447953           
         C44       1.0000    0.38320   0.75320   0.38320   Biso      1.000     C          0.398299  
         C45       1.0000    0.51000   0.00000   0.32140   Biso      1.000     C          -0.445719           
         C46       1.0000    0.61680   0.00000   0.37000   Biso      1.000     C          0.396712  
         C47       1.0000    0.58550   0.53070   0.32020   Biso      1.000     C          -0.066997           
         C48       1.0000    0.78950   0.46930   0.05480   Biso      1.000     C          -0.06505  
         Co1       1.0000    0.75000   0.25000   0.50000   Biso      1.000     Co          0.691456  
         Co2       1.0000    0.75000   0.50000   0.25000   Biso      1.000     Co          0.691605  
         Co3       1.0000    0.25000   0.50000   0.75000   Biso      1.000     Co          0.697244  
         Co4       1.0000    0.50000   0.75000   0.25000   Biso      1.000     Co          0.697024  
         Co5       1.0000    0.50000   0.25000   0.75000   Biso      1.000     Co          0.697006  
         Co6       1.0000    0.25000   0.75000   0.50000   Biso      1.000     Co          0.696003  
         H1        1.0000    0.47164   0.35508   0.57397   Biso      1.000     H          0.093483  
         H2        1.0000    0.49743   0.51764   0.74907   Biso      1.000     H          0.122583  
         H3        1.0000    0.24002   0.00053   0.49299   Biso      1.000     H          0.122307  
         H4        1.0000    0.38268   0.07735   0.51644   Biso      1.000     H          0.136283  
         H5        1.0000    0.30435   0.92212   0.43892   Biso      1.000     H          0.138548  
         H6        1.0000    0.47998   0.85754   0.56231   Biso      1.000     H          0.134392  
         H7        1.0000    0.51259   0.74757   0.50211   Biso      1.000     H          0.122873  
         H8        1.0000    0.55908   0.87359   0.48724   Biso      1.000     H          0.140727  
         H9        1.0000    0.50876   0.06552   0.38904   Biso      1.000     H          0.141493  
         H10       1.0000    0.50257   0.02021   0.25164   Biso      1.000     H          0.122274  
         H11       1.0000    0.43702   0.91427   0.28637   Biso      1.000     H          0.134129  
         H12       1.0000    0.72864   0.24240   0.77337   Biso      1.000     H          0.125867  
         H13       1.0000    0.60859   0.10522   0.65348   Biso      1.000     H          0.145395  
         H14       1.0000    0.56298   0.47725   0.84935   Biso      1.000     H          0.134265  
         H15       1.0000    0.73573   0.17368   0.64610   Biso      1.000     H          0.131466  
         H16       1.0000    0.49124   0.55676   0.88028   Biso      1.000     H          0.141556  
         H17       1.0000    0.44092   0.31450   0.92815   Biso      1.000     H          0.140578  
         H18       1.0000    0.86022   0.56196   0.48100   Biso      1.000     H          0.136885  
         H19       1.0000    0.06311   0.50728   0.38975   Biso      1.000     H          0.139696  
         H20       1.0000    0.91333   0.43692   0.28333   Biso      1.000     H          0.134758  
         H21       1.0000    0.02356   0.50415   0.25396   Biso      1.000     H          0.122887  
         H22       1.0000    0.25272   0.75644   0.76362   Biso      1.000     H          0.122816  
         H23       1.0000    0.13978   0.70174   0.62079   Biso      1.000     H          0.13673   
         H24       1.0000    0.12880   0.61477   0.68855   Biso      1.000     H          0.138656  
         H25       1.0000    0.03687   0.26431   0.51028   Biso      1.000     H          0.124395  
         H26       1.0000    0.91082   0.27132   0.43720   Biso      1.000     H          0.1329    
         H27       1.0000    0.05231   0.39141   0.50087   Biso      1.000     H          0.142073  
         H28       1.0000    0.27136   0.51376   0.04473   Biso      1.000     H          0.125691  
         H29       1.0000    0.26427   0.43796   0.91037   Biso      1.000     H          0.131286  
         H30       1.0000    0.39141   0.49663   0.04490   Biso      1.000     H          0.145393  
         H31       1.0000    0.75998   0.76051   0.25297   Biso      1.000     H          0.122464  
         H32       1.0000    0.69565   0.61777   0.13457   Biso      1.000     H          0.1386    
         H33       1.0000    0.61732   0.69468   0.13376   Biso      1.000     H          0.136255  
         H34       1.0000    0.52002   0.37756   0.08233   Biso      1.000     H          0.134417  
         H35       1.0000    0.48741   0.23498   0.98952   Biso      1.000     H          0.122621  
         H36       1.0000    0.52836   0.10233   0.88344   Biso      1.000     H          0.091703  
         H37       1.0000    0.74728   0.50372   0.51090   Biso      1.000     H          0.121559  
         H38       1.0000    0.88344   0.10233   0.52836   Biso      1.000     H          0.093813  
         H39       1.0000    0.42603   0.89767   0.78111   Biso      1.000     H          0.092654  
         H40       1.0000    0.87120   0.48597   0.55975   Biso      1.000     H          0.139485  
         H41       1.0000    0.21889   0.11656   0.64492   Biso      1.000     H          0.092375  
         H42       1.0000    0.78111   0.42603   0.89767   Biso      1.000     H          0.093007  
         H43       1.0000    0.47164   0.57397   0.35508   Biso      1.000     H          0.091725  
         H44       1.0000    0.52836   0.88344   0.10233   Biso      1.000     H          0.093459  
         H45       1.0000    0.10233   0.52836   0.88344   Biso      1.000     H          0.095092  
         H46       1.0000    0.35508   0.47164   0.57397   Biso      1.000     H          0.09182   
         H47       1.0000    0.89767   0.78111   0.42603   Biso      1.000     H          0.092661  
         H48       1.0000    0.11656   0.64492   0.21889   Biso      1.000     H          0.092485  
         H49       1.0000    0.64492   0.21889   0.11656   Biso      1.000     H          0.092379  
         H50       1.0000    0.35508   0.57397   0.47164   Biso      1.000     H          0.092706  
         H51       1.0000    0.89767   0.42603   0.78111   Biso      1.000     H          0.095185  
         H52       1.0000    0.64492   0.11656   0.21889   Biso      1.000     H          0.091429  
         H53       1.0000    0.57397   0.47164   0.35508   Biso      1.000     H          0.092431  
         H54       1.0000    0.88344   0.52836   0.10233   Biso      1.000     H          0.093876  
         H55       1.0000    0.11656   0.21889   0.64492   Biso      1.000     H          0.091948  
         H56       1.0000    0.42603   0.78111   0.89767   Biso      1.000     H          0.092371  
         H57       1.0000    0.21889   0.64492   0.11656   Biso      1.000     H          0.093231  
         H58       1.0000    0.78111   0.89767   0.42603   Biso      1.000     H          0.09205   
         H59       1.0000    0.10233   0.88344   0.52836   Biso      1.000     H          0.092533  
         H60       1.0000    0.57397   0.35508   0.47164   Biso      1.000     H          0.092186  
         N1        1.0000    0.27350   0.65190   0.55880   Biso      1.000     N          -0.373293           
         N2        1.0000    0.65190   0.27350   0.55880   Biso      1.000     N          -0.370678           
         N3        1.0000    0.90690   0.34810   0.62160   Biso      1.000     N          -0.37451  
         N4        1.0000    0.72650   0.37840   0.28530   Biso      1.000     N          -0.372182           
         N5        1.0000    0.65190   0.55880   0.27350   Biso      1.000     N          -0.37339  
         N6        1.0000    0.71470   0.44120   0.09310   Biso      1.000     N          -0.373109           
         N7        1.0000    0.28530   0.37840   0.72650   Biso      1.000     N          -0.372975           
         N8        1.0000    0.34810   0.62160   0.90690   Biso      1.000     N          -0.371235           
         N9        1.0000    0.37840   0.72650   0.28530   Biso      1.000     N          -0.374039           
         N10       1.0000    0.62160   0.90690   0.34810   Biso      1.000     N          -0.372247           
         N11       1.0000    0.55880   0.27350   0.65190   Biso      1.000     N          -0.375433           
         N12       1.0000    0.09310   0.71470   0.44120   Biso      1.000     N          -0.373384           
         N13       1.0000    0.44120   0.09310   0.71470   Biso      1.000     N          -0.37113  
         N14       1.0000    0.27350   0.55880   0.65190   Biso      1.000     N          -0.372338           
         N15       1.0000    0.09310   0.44120   0.71470   Biso      1.000     N          -0.377067           
         N16       1.0000    0.44120   0.71470   0.09310   Biso      1.000     N          -0.375405           
         N17       1.0000    0.55880   0.65190   0.27350   Biso      1.000     N          -0.371115           
         N18       1.0000    0.62160   0.34810   0.90690   Biso      1.000     N          -0.374159           
         N19       1.0000    0.37840   0.28530   0.72650   Biso      1.000     N          -0.372135           
         N20       1.0000    0.34810   0.90690   0.62160   Biso      1.000     N          -0.373722           
         N21       1.0000    0.28530   0.72650   0.37840   Biso      1.000     N          -0.372001           
         N22       1.0000    0.71470   0.09310   0.44120   Biso      1.000     N          -0.37435  
         N23       1.0000    0.90690   0.62160   0.34810   Biso      1.000     N          -0.371433           
         N24       1.0000    0.72650   0.28530   0.37840   Biso      1.000     N          -0.371268 