
##########################################################################
#               Crystallographic Information Format file
#               Produced by PyCifRW module
#
#  This is a CIF file.  CIF has been adopted by the International
#  Union of Crystallography as the standard for data archiving and
#  transmission.
#
#  For information on this file format, follow the CIF links at
#  http://www.iucr.org
##########################################################################

data_image0

_cell_length_a                          14.6868
_cell_length_b                          14.6868
_cell_length_c                          14.6868
_cell_angle_alpha                       109.471
_cell_angle_beta                        109.471
_cell_angle_gamma                       109.471
_symmetry_space_group_name_H-M          'P 1'
_symmetry_int_tables_number             1
loop_
  _symmetry_equiv_pos_as_xyz
         'x, y, z' 
loop_
  _atom_site_label
  _atom_site_occupancy
  _atom_site_fract_x
  _atom_site_fract_y
  _atom_site_fract_z
  _atom_site_thermal_displace_type
  _atom_site_B_iso_or_equiv
  _atom_site_type_symbol
  _atom_site_charge
         C1        1.0000    0.32170   0.50930   0.00000   Biso      1.000     C          -0.448879           
         C2        1.0000    0.73360   0.94450   0.41590   Biso      1.000     C          -0.11381300000000001          
         C3        1.0000    0.26640   0.68230   0.21090   Biso      1.000     C          -0.068746           
         C4        1.0000    0.58410   0.31770   0.52860   Biso      1.000     C          -0.068941           
         C5        1.0000    0.78910   0.05550   0.47140   Biso      1.000     C          0.027575  
         C6        1.0000    0.21090   0.68230   0.26640   Biso      1.000     C          -0.06681799999999999          
         C7        1.0000    0.41590   0.94450   0.73360   Biso      1.000     C          -0.06719800000000001          
         C8        1.0000    0.26640   0.21090   0.68230   Biso      1.000     C          -0.06579  
         C9        1.0000    0.73360   0.41590   0.94450   Biso      1.000     C          -0.07048099999999999          
         C10       1.0000    0.52860   0.58410   0.31770   Biso      1.000     C          -0.065116           
         C11       1.0000    0.52860   0.31770   0.58410   Biso      1.000     C          -0.0626   
         C12       1.0000    0.47140   0.78910   0.05550   Biso      1.000     C          -0.064814           
         C13       1.0000    0.31770   0.52860   0.58410   Biso      1.000     C          -0.066952           
         C14       1.0000    0.94450   0.73360   0.41590   Biso      1.000     C          -0.068082           
         C15       1.0000    0.68230   0.26640   0.21090   Biso      1.000     C          -0.064862           
         C16       1.0000    0.05550   0.78910   0.47140   Biso      1.000     C          -0.06486  
         C17       1.0000    0.31770   0.58410   0.52860   Biso      1.000     C          -0.06564099999999999          
         C18       1.0000    0.94450   0.41590   0.73360   Biso      1.000     C          -0.114988           
         C19       1.0000    0.68230   0.21090   0.26640   Biso      1.000     C          -0.067886           
         C20       1.0000    0.58410   0.52860   0.31770   Biso      1.000     C          -0.066863           
         C21       1.0000    0.78910   0.47140   0.05550   Biso      1.000     C          -0.064723           
         C22       1.0000    0.05550   0.47140   0.78910   Biso      1.000     C          0.028572000000000004          
         C23       1.0000    0.47140   0.05550   0.78910   Biso      1.000     C          -0.065489           
         C24       1.0000    0.62820   0.24540   0.62820   Biso      1.000     C          0.384979  
         C25       1.0000    0.67830   0.18760   0.67830   Biso      1.000     C          -0.44784300000000005          
         C26       1.0000    0.81240   0.49070   0.49070   Biso      1.000     C          -0.44831400000000005          
         C27       1.0000    0.75460   0.38280   0.38280   Biso      1.000     C          0.394119  
         C28       1.0000    0.00000   0.50930   0.32170   Biso      1.000     C          -0.44762399999999997          
         C29       1.0000    0.00000   0.61720   0.37180   Biso      1.000     C          0.38832300000000003           
         C30       1.0000    0.18760   0.67830   0.67830   Biso      1.000     C          -0.450729           
         C31       1.0000    0.24540   0.62820   0.62820   Biso      1.000     C          0.384466  
         C32       1.0000    0.00000   0.32170   0.50930   Biso      1.000     C          -0.448304           
         C33       1.0000    0.00000   0.37180   0.61720   Biso      1.000     C          0.39636   
         C34       1.0000    0.37180   0.61720   0.00000   Biso      1.000     C          0.388162  
         C35       1.0000    0.67830   0.67830   0.18760   Biso      1.000     C          -0.45028500000000005          
         C36       1.0000    0.62820   0.62820   0.24540   Biso      1.000     C          0.38756799999999997           
         C37       1.0000    0.50930   0.32170   0.00000   Biso      1.000     C          -0.450399           
         C38       1.0000    0.61720   0.37180   0.00000   Biso      1.000     C          0.390543  
         C39       1.0000    0.49070   0.49070   0.81240   Biso      1.000     C          -0.448722           
         C40       1.0000    0.38280   0.38280   0.75460   Biso      1.000     C          0.38958899999999996           
         C41       1.0000    0.32170   0.00000   0.50930   Biso      1.000     C          -0.450079           
         C42       1.0000    0.37180   0.00000   0.61720   Biso      1.000     C          0.386469  
         C43       1.0000    0.49070   0.81240   0.49070   Biso      1.000     C          -0.450383           
         C44       1.0000    0.38280   0.75460   0.38280   Biso      1.000     C          0.389865  
         C45       1.0000    0.50930   0.00000   0.32170   Biso      1.000     C          -0.45005600000000007          
         C46       1.0000    0.61720   0.00000   0.37180   Biso      1.000     C          0.397613  
         C47       1.0000    0.21090   0.26640   0.68230   Biso      1.000     C          -0.067593           
         C48       1.0000    0.41590   0.73360   0.94450   Biso      1.000     C          -0.06733600000000001          
         Co1       1.0000    0.75000   0.25000   0.50000   Biso      1.000     Co          0.708767  
         Co2       1.0000    0.75000   0.50000   0.25000   Biso      1.000     Co          0.692567  
         Co3       1.0000    0.25000   0.50000   0.75000   Biso      1.000     Co          0.7115279999999999  
         Co4       1.0000    0.50000   0.75000   0.25000   Biso      1.000     Co          0.703976  
         Co5       1.0000    0.50000   0.25000   0.75000   Biso      1.000     Co          0.698091  
         Co6       1.0000    0.25000   0.75000   0.50000   Biso      1.000     Co          0.69702   
         H1        1.0000    0.46907   0.35202   0.57211   Biso      1.000     H          0.092525  
         H2        1.0000    0.49724   0.51773   0.74946   Biso      1.000     H          0.122455  
         H3        1.0000    0.24099   0.00165   0.49362   Biso      1.000     H          0.123235  
         H4        1.0000    0.38302   0.07678   0.51500   Biso      1.000     H          0.136504  
         H5        1.0000    0.30322   0.92157   0.43773   Biso      1.000     H          0.13903900000000002           
         H6        1.0000    0.48098   0.85853   0.56326   Biso      1.000     H          0.135363  
         H7        1.0000    0.51245   0.74789   0.50209   Biso      1.000     H          0.12333699999999999           
         H8        1.0000    0.56021   0.87447   0.48830   Biso      1.000     H          0.141007  
         H9        1.0000    0.50746   0.06532   0.38893   Biso      1.000     H          0.142941  
         H10       1.0000    0.50276   0.02049   0.25223   Biso      1.000     H          0.12371900000000001           
         H11       1.0000    0.43613   0.91419   0.28608   Biso      1.000     H          0.137467  
         H12       1.0000    0.72701   0.24132   0.77308   Biso      1.000     H          0.128236  
         H13       1.0000    0.60891   0.10346   0.65245   Biso      1.000     H          0.14519400000000002           
         H14       1.0000    0.56387   0.47806   0.84995   Biso      1.000     H          0.13536900000000002           
         H15       1.0000    0.73685   0.17433   0.64723   Biso      1.000     H          0.13181500000000002           
         H16       1.0000    0.49254   0.55785   0.88147   Biso      1.000     H          0.142102  
         H17       1.0000    0.43979   0.31425   0.92808   Biso      1.000     H          0.141574  
         H18       1.0000    0.86122   0.56293   0.48203   Biso      1.000     H          0.138621  
         H19       1.0000    0.06307   0.50607   0.38958   Biso      1.000     H          0.139296  
         H20       1.0000    0.91332   0.43606   0.28326   Biso      1.000     H          0.135214  
         H21       1.0000    0.02361   0.50423   0.25439   Biso      1.000     H          0.123674  
         H22       1.0000    0.25240   0.75611   0.76315   Biso      1.000     H          0.12401600000000002           
         H23       1.0000    0.13878   0.70171   0.62081   Biso      1.000     H          0.137707  
         H24       1.0000    0.12794   0.61495   0.68880   Biso      1.000     H          0.139163  
         H25       1.0000    0.03745   0.26518   0.51055   Biso      1.000     H          0.127691  
         H26       1.0000    0.91076   0.27083   0.43651   Biso      1.000     H          0.132733  
         H27       1.0000    0.05180   0.39123   0.49930   Biso      1.000     H          0.141204  
         H28       1.0000    0.27299   0.51432   0.04607   Biso      1.000     H          0.128582  
         H29       1.0000    0.26315   0.43748   0.91038   Biso      1.000     H          0.131341  
         H30       1.0000    0.39109   0.49455   0.04355   Biso      1.000     H          0.14335499999999998           
         H31       1.0000    0.75901   0.76066   0.25263   Biso      1.000     H          0.124259  
         H32       1.0000    0.69678   0.61835   0.13451   Biso      1.000     H          0.139503  
         H33       1.0000    0.61698   0.69376   0.13198   Biso      1.000     H          0.137025  
         H34       1.0000    0.51902   0.37755   0.08228   Biso      1.000     H          0.134972  
         H35       1.0000    0.48755   0.23543   0.98964   Biso      1.000     H          0.12290799999999999           
         H36       1.0000    0.53092   0.10303   0.88294   Biso      1.000     H          0.08976   
         H37       1.0000    0.74760   0.50371   0.51076   Biso      1.000     H          0.12231199999999999           
         H38       1.0000    0.57211   0.35202   0.46907   Biso      1.000     H          0.090803  
         H39       1.0000    0.42789   0.89697   0.77991   Biso      1.000     H          0.09082   
         H40       1.0000    0.87206   0.48700   0.56086   Biso      1.000     H          0.141066  
         H41       1.0000    0.22009   0.11706   0.64798   Biso      1.000     H          0.091553  
         H42       1.0000    0.77991   0.42789   0.89697   Biso      1.000     H          0.09298200000000001           
         H43       1.0000    0.46907   0.57211   0.35202   Biso      1.000     H          0.090289  
         H44       1.0000    0.53092   0.88294   0.10303   Biso      1.000     H          0.090986  
         H45       1.0000    0.35202   0.46907   0.57211   Biso      1.000     H          0.090245  
         H46       1.0000    0.89697   0.77991   0.42789   Biso      1.000     H          0.092438  
         H47       1.0000    0.64798   0.22009   0.11706   Biso      1.000     H          0.091488  
         H48       1.0000    0.10303   0.88294   0.53092   Biso      1.000     H          0.091771  
         H49       1.0000    0.35202   0.57211   0.46907   Biso      1.000     H          0.091161  
         H50       1.0000    0.89697   0.42789   0.77991   Biso      1.000     H          0.10107100000000001           
         H51       1.0000    0.64798   0.11706   0.22009   Biso      1.000     H          0.090405  
         H52       1.0000    0.57211   0.46907   0.35202   Biso      1.000     H          0.090545  
         H53       1.0000    0.88294   0.53092   0.10303   Biso      1.000     H          0.093105  
         H54       1.0000    0.11706   0.22009   0.64798   Biso      1.000     H          0.094442  
         H55       1.0000    0.42789   0.77991   0.89697   Biso      1.000     H          0.090384  
         H56       1.0000    0.22009   0.64798   0.11706   Biso      1.000     H          0.09611   
         H57       1.0000    0.77991   0.89697   0.42789   Biso      1.000     H          0.098832  
         H58       1.0000    0.11706   0.64798   0.22009   Biso      1.000     H          0.09200599999999999           
         N1        1.0000    0.90750   0.35030   0.62280   Biso      1.000     N          -0.35203  
         N2        1.0000    0.72750   0.28470   0.37720   Biso      1.000     N          -0.365773           
         N3        1.0000    0.71530   0.09250   0.44280   Biso      1.000     N          -0.403444           
         N4        1.0000    0.27250   0.64970   0.55720   Biso      1.000     N          -0.36685999999999996          
         N5        1.0000    0.71530   0.44280   0.09250   Biso      1.000     N          -0.367595           
         N6        1.0000    0.28470   0.37720   0.72750   Biso      1.000     N          -0.36696999999999996          
         N7        1.0000    0.35030   0.62280   0.90750   Biso      1.000     N          -0.367175           
         N8        1.0000    0.37720   0.72750   0.28470   Biso      1.000     N          -0.368525           
         N9        1.0000    0.62280   0.90750   0.35030   Biso      1.000     N          -0.346431           
         N10       1.0000    0.55720   0.27250   0.64970   Biso      1.000     N          -0.36804899999999996          
         N11       1.0000    0.44280   0.09250   0.71530   Biso      1.000     N          -0.365033           
         N12       1.0000    0.09250   0.71530   0.44280   Biso      1.000     N          -0.367313           
         N13       1.0000    0.72750   0.37720   0.28470   Biso      1.000     N          -0.365374           
         N14       1.0000    0.90750   0.62280   0.35030   Biso      1.000     N          -0.366272           
         N15       1.0000    0.27250   0.55720   0.64970   Biso      1.000     N          -0.366176           
         N16       1.0000    0.09250   0.44280   0.71530   Biso      1.000     N          -0.404445           
         N17       1.0000    0.44280   0.71530   0.09250   Biso      1.000     N          -0.36841399999999996          
         N18       1.0000    0.55720   0.64970   0.27250   Biso      1.000     N          -0.364553           
         N19       1.0000    0.62280   0.35030   0.90750   Biso      1.000     N          -0.368694           
         N20       1.0000    0.37720   0.28470   0.72750   Biso      1.000     N          -0.367085           
         N21       1.0000    0.35030   0.90750   0.62280   Biso      1.000     N          -0.367761           
         N22       1.0000    0.28470   0.72750   0.37720   Biso      1.000     N          -0.366564           
         N23       1.0000    0.64970   0.27250   0.55720   Biso      1.000     N          -0.365066           
         N24       1.0000    0.64970   0.55720   0.27250   Biso      1.000     N          -0.367058 