
##########################################################################
#               Crystallographic Information Format file
#               Produced by PyCifRW module
#
#  This is a CIF file.  CIF has been adopted by the International
#  Union of Crystallography as the standard for data archiving and
#  transmission.
#
#  For information on this file format, follow the CIF links at
#  http://www.iucr.org
##########################################################################

data_image0

_cell_length_a                          9.6362
_cell_length_b                          11.462
_cell_length_c                          19.147
_cell_angle_alpha                       90
_cell_angle_beta                        97.98
_cell_angle_gamma                       90
_symmetry_space_group_name_H-M          'P 1'
_symmetry_int_tables_number             1
loop_
  _symmetry_equiv_pos_as_xyz
         'x, y, z' 
loop_
  _atom_site_label
  _atom_site_occupancy
  _atom_site_fract_x
  _atom_site_fract_y
  _atom_site_fract_z
  _atom_site_thermal_displace_type
  _atom_site_B_iso_or_equiv
  _atom_site_type_symbol
  _atom_site_charge
         C1        1.0000    0.59200   0.42330   0.92680   Biso      1.000     C          -0.213323           
         C2        1.0000    0.07510   0.79020   0.50360   Biso      1.000     C          0.057136  
         C3        1.0000    0.25070   0.81560   0.60480   Biso      1.000     C          0.115698  
         C4        1.0000    0.29690   0.91650   0.57510   Biso      1.000     C          -0.194965           
         C5        1.0000    0.23220   0.95430   0.50960   Biso      1.000     C          0.17306   
         C6        1.0000    0.28070   0.06430   0.47520   Biso      1.000     C          -0.250526           
         C7        1.0000    0.36500   0.14800   0.52670   Biso      1.000     C          -0.15899  
         C8        1.0000    0.39500   0.25990   0.48850   Biso      1.000     C          -0.236282           
         C9        1.0000    0.48030   0.49790   0.62210   Biso      1.000     C          0.108587  
         C10       1.0000    0.40800   0.42330   0.57320   Biso      1.000     C          -0.213321           
         C11       1.0000    0.48200   0.34530   0.53710   Biso      1.000     C          0.182649  
         C12       1.0000    0.62500   0.34840   0.55250   Biso      1.000     C          -0.214392           
         C13       1.0000    0.12130   0.89110   0.47380   Biso      1.000     C          -0.200104           
         C14       1.0000    0.68880   0.42550   0.60240   Biso      1.000     C          0.070736  
         C15       1.0000    0.87870   0.89110   0.02620   Biso      1.000     C          -0.200105           
         C16       1.0000    0.92490   0.79020   0.99640   Biso      1.000     C          0.057135  
         C17       1.0000    0.74930   0.81560   0.89520   Biso      1.000     C          0.115699  
         C18       1.0000    0.70310   0.91650   0.92490   Biso      1.000     C          -0.194965           
         C19       1.0000    0.76780   0.95430   0.99040   Biso      1.000     C          0.17306   
         C20       1.0000    0.71930   0.06430   0.02480   Biso      1.000     C          -0.250526           
         C21       1.0000    0.63500   0.14800   0.97330   Biso      1.000     C          -0.15899  
         C22       1.0000    0.60500   0.25990   0.01150   Biso      1.000     C          -0.236281           
         C23       1.0000    0.51970   0.49790   0.87790   Biso      1.000     C          0.108589  
         C24       1.0000    0.51800   0.34530   0.96290   Biso      1.000     C          0.182649  
         C25       1.0000    0.37500   0.34840   0.94750   Biso      1.000     C          -0.214392           
         C26       1.0000    0.55630   0.69500   0.74090   Biso      1.000     C          -0.467011           
         C27       1.0000    0.55630   0.30500   0.24090   Biso      1.000     C          -0.467009           
         C28       1.0000    0.68880   0.57450   0.10240   Biso      1.000     C          0.070736  
         C29       1.0000    0.62500   0.65160   0.05250   Biso      1.000     C          -0.214393           
         C30       1.0000    0.87870   0.10890   0.52620   Biso      1.000     C          -0.200105           
         C31       1.0000    0.92490   0.20980   0.49640   Biso      1.000     C          0.057136  
         C32       1.0000    0.74930   0.18440   0.39520   Biso      1.000     C          0.115699  
         C33       1.0000    0.70310   0.08350   0.42490   Biso      1.000     C          -0.194966           
         C34       1.0000    0.76780   0.04570   0.49040   Biso      1.000     C          0.17306   
         C35       1.0000    0.71930   0.93570   0.52480   Biso      1.000     C          -0.250526           
         C36       1.0000    0.63500   0.85200   0.47330   Biso      1.000     C          -0.15899  
         C37       1.0000    0.60500   0.74010   0.51150   Biso      1.000     C          -0.236282           
         C38       1.0000    0.51970   0.50210   0.37790   Biso      1.000     C          0.108586  
         C39       1.0000    0.59200   0.57670   0.42680   Biso      1.000     C          -0.21332  
         C40       1.0000    0.51800   0.65470   0.46290   Biso      1.000     C          0.18265   
         C41       1.0000    0.37500   0.65160   0.44750   Biso      1.000     C          -0.214392           
         C42       1.0000    0.31120   0.57450   0.39760   Biso      1.000     C          0.070736  
         C43       1.0000    0.44370   0.30500   0.25910   Biso      1.000     C          -0.466834           
         C44       1.0000    0.12130   0.10890   0.97380   Biso      1.000     C          -0.200105           
         C45       1.0000    0.07510   0.20980   0.00360   Biso      1.000     C          0.057137  
         C46       1.0000    0.25070   0.18440   0.10480   Biso      1.000     C          0.115698  
         C47       1.0000    0.29690   0.08350   0.07510   Biso      1.000     C          -0.194965           
         C48       1.0000    0.23220   0.04570   0.00960   Biso      1.000     C          0.17306   
         C49       1.0000    0.28070   0.93570   0.97520   Biso      1.000     C          -0.250527           
         C50       1.0000    0.36500   0.85200   0.02670   Biso      1.000     C          -0.15899  
         C51       1.0000    0.39500   0.74010   0.98850   Biso      1.000     C          -0.236282           
         C52       1.0000    0.48030   0.50210   0.12210   Biso      1.000     C          0.108587  
         C53       1.0000    0.40800   0.57670   0.07320   Biso      1.000     C          -0.21332  
         C54       1.0000    0.48200   0.65470   0.03710   Biso      1.000     C          0.182649  
         C55       1.0000    0.31120   0.42550   0.89760   Biso      1.000     C          0.070736  
         C56       1.0000    0.44370   0.69500   0.75910   Biso      1.000     C          -0.466832           
         Cu1       1.0000    0.27973   0.61769   0.78841   Biso      1.000     Cu          0.357016  
         Cu2       1.0000    0.95984   0.61678   0.88706   Biso      1.000     Cu          0.315267  
         Cu3       1.0000    0.72027   0.61769   0.71159   Biso      1.000     Cu          0.357042  
         Cu4       1.0000    0.04016   0.61678   0.61294   Biso      1.000     Cu          0.315291  
         Cu5       1.0000    0.72027   0.38231   0.21159   Biso      1.000     Cu          0.357038  
         Cu6       1.0000    0.04016   0.38322   0.11294   Biso      1.000     Cu          0.315287  
         Cu7       1.0000    0.27973   0.38231   0.28841   Biso      1.000     Cu          0.35702   
         Cu8       1.0000    0.95984   0.38322   0.38706   Biso      1.000     Cu          0.315263  
         H1        1.0000    0.55420   0.75950   0.55150   Biso      1.000     H          0.116564  
         H2        1.0000    0.69470   0.70270   0.53090   Biso      1.000     H          0.111748  
         H3        1.0000    0.78810   0.42430   0.61240   Biso      1.000     H          0.066099  
         H4        1.0000    0.68060   0.29730   0.52890   Biso      1.000     H          0.109873  
         H5        1.0000    0.30850   0.42550   0.56450   Biso      1.000     H          0.116473  
         H6        1.0000    0.45420   0.11080   0.54690   Biso      1.000     H          0.094744  
         H7        1.0000    0.30530   0.29730   0.46910   Biso      1.000     H          0.111747  
         H8        1.0000    0.44580   0.24050   0.44850   Biso      1.000     H          0.116564  
         H9        1.0000    0.00070   0.74700   0.02090   Biso      1.000     H          0.100322  
         H10       1.0000    0.31130   0.16650   0.56580   Biso      1.000     H          0.096127  
         H11       1.0000    0.42760   0.55020   0.64650   Biso      1.000     H          0.097873  
         H12       1.0000    0.70510   0.78970   0.85040   Biso      1.000     H          0.112055  
         H13       1.0000    0.68870   0.16650   0.93420   Biso      1.000     H          0.096127  
         H14       1.0000    0.80260   0.10590   0.04880   Biso      1.000     H          0.123482  
         H15       1.0000    0.66110   0.04130   0.06130   Biso      1.000     H          0.128366  
         H16       1.0000    0.33890   0.04130   0.43870   Biso      1.000     H          0.128366  
         H17       1.0000    0.54580   0.11080   0.95310   Biso      1.000     H          0.094744  
         H18       1.0000    0.55420   0.24050   0.05150   Biso      1.000     H          0.116564  
         H19       1.0000    0.69470   0.29730   0.03090   Biso      1.000     H          0.111748  
         H20       1.0000    0.57240   0.55020   0.85350   Biso      1.000     H          0.097874  
         H21       1.0000    0.69150   0.42550   0.93550   Biso      1.000     H          0.116473  
         H22       1.0000    0.31940   0.29730   0.97110   Biso      1.000     H          0.109873  
         H23       1.0000    0.21190   0.42430   0.88760   Biso      1.000     H          0.066097  
         H24       1.0000    0.62730   0.95970   0.90050   Biso      1.000     H          0.133653  
         H25       1.0000    0.19740   0.10590   0.45120   Biso      1.000     H          0.123482  
         H26       1.0000    0.92290   0.91700   0.07090   Biso      1.000     H          0.137285  
         H27       1.0000    0.29490   0.78970   0.64960   Biso      1.000     H          0.112052  
         H28       1.0000    0.54580   0.88920   0.45310   Biso      1.000     H          0.094744  
         H29       1.0000    0.68870   0.83350   0.43420   Biso      1.000     H          0.096127  
         H30       1.0000    0.66110   0.95870   0.56130   Biso      1.000     H          0.128366  
         H31       1.0000    0.80260   0.89410   0.54880   Biso      1.000     H          0.123482  
         H32       1.0000    0.62730   0.04030   0.40050   Biso      1.000     H          0.133653  
         H33       1.0000    0.70510   0.21030   0.35040   Biso      1.000     H          0.112055  
         H34       1.0000    0.37270   0.95970   0.59950   Biso      1.000     H          0.133653  
         H35       1.0000    0.92290   0.08300   0.57090   Biso      1.000     H          0.137286  
         H36       1.0000    0.57240   0.44980   0.35350   Biso      1.000     H          0.097873  
         H37       1.0000    0.69150   0.57450   0.43550   Biso      1.000     H          0.116473  
         H38       1.0000    0.31940   0.70270   0.47110   Biso      1.000     H          0.109873  
         H39       1.0000    0.21190   0.57570   0.38760   Biso      1.000     H          0.066097  
         H40       1.0000    0.07710   0.08300   0.92910   Biso      1.000     H          0.137285  
         H41       1.0000    0.99930   0.25300   0.97910   Biso      1.000     H          0.100323  
         H42       1.0000    0.00070   0.25300   0.52090   Biso      1.000     H          0.100322  
         H43       1.0000    0.37270   0.04030   0.09950   Biso      1.000     H          0.133653  
         H44       1.0000    0.29490   0.21030   0.14960   Biso      1.000     H          0.112052  
         H45       1.0000    0.99930   0.74700   0.47910   Biso      1.000     H          0.100323  
         H46       1.0000    0.07710   0.91700   0.42910   Biso      1.000     H          0.137286  
         H47       1.0000    0.78810   0.57570   0.11240   Biso      1.000     H          0.066099  
         H48       1.0000    0.30850   0.57450   0.06450   Biso      1.000     H          0.116474  
         H49       1.0000    0.42760   0.44980   0.14650   Biso      1.000     H          0.097874  
         H50       1.0000    0.30530   0.70270   0.96910   Biso      1.000     H          0.111747  
         H51       1.0000    0.68060   0.70270   0.02890   Biso      1.000     H          0.109873  
         H52       1.0000    0.44580   0.75950   0.94850   Biso      1.000     H          0.116564  
         H53       1.0000    0.45420   0.88920   0.04690   Biso      1.000     H          0.094744  
         H54       1.0000    0.31130   0.83350   0.06580   Biso      1.000     H          0.096127  
         H55       1.0000    0.33890   0.95870   0.93870   Biso      1.000     H          0.128366  
         H56       1.0000    0.19740   0.89410   0.95120   Biso      1.000     H          0.123483  
         Mo1       1.0000    0.00000   0.38353   0.25000   Biso      1.000     Mo          0.836752  
         Mo2       1.0000    0.00000   0.61647   0.75000   Biso      1.000     Mo          0.836747  
         N1        1.0000    0.86020   0.75240   0.93090   Biso      1.000     N          -0.225073           
         N2        1.0000    0.13980   0.24760   0.06910   Biso      1.000     N          -0.225072           
         N3        1.0000    0.37960   0.49930   0.36300   Biso      1.000     N          -0.175018           
         N4        1.0000    0.00540   0.47460   0.02580   Biso      1.000     N          -0.018371           
         N5        1.0000    0.62040   0.49930   0.13700   Biso      1.000     N          -0.175019           
         N6        1.0000    0.13980   0.75240   0.56910   Biso      1.000     N          -0.225073           
         N7        1.0000    0.00540   0.52540   0.52580   Biso      1.000     N          -0.018371           
         N8        1.0000    0.62040   0.50070   0.63700   Biso      1.000     N          -0.17502  
         N9        1.0000    0.99460   0.52540   0.97420   Biso      1.000     N          -0.018174           
         N10       1.0000    0.86020   0.24760   0.43090   Biso      1.000     N          -0.225072           
         N11       1.0000    0.99460   0.47460   0.47420   Biso      1.000     N          -0.018173           
         N12       1.0000    0.37960   0.50070   0.86300   Biso      1.000     N          -0.175018           
         S1        1.0000    0.84620   0.49340   0.29772   Biso      1.000     S          -0.496792           
         S2        1.0000    0.11810   0.27450   0.33439   Biso      1.000     S          -0.49255  
         S3        1.0000    0.15380   0.49340   0.20228   Biso      1.000     S          -0.496793           
         S4        1.0000    0.88190   0.27450   0.16561   Biso      1.000     S          -0.492553           
         S5        1.0000    0.15380   0.50660   0.70228   Biso      1.000     S          -0.496791           
         S6        1.0000    0.88190   0.72550   0.66561   Biso      1.000     S          -0.492554           
         S7        1.0000    0.11810   0.72550   0.83439   Biso      1.000     S          -0.492549           
         S8        1.0000    0.84620   0.50660   0.79772   Biso      1.000     S          -0.496795 