
##########################################################################
#               Crystallographic Information Format file
#               Produced by PyCifRW module
#
#  This is a CIF file.  CIF has been adopted by the International
#  Union of Crystallography as the standard for data archiving and
#  transmission.
#
#  For information on this file format, follow the CIF links at
#  http://www.iucr.org
##########################################################################

data_image0

_cell_length_a                          9.6701
_cell_length_b                          11.742
_cell_length_c                          18.852
_cell_angle_alpha                       90
_cell_angle_beta                        97.91
_cell_angle_gamma                       90
_symmetry_space_group_name_H-M          'P 1'
_symmetry_int_tables_number             1
loop_
  _symmetry_equiv_pos_as_xyz
         'x, y, z' 
loop_
  _atom_site_label
  _atom_site_occupancy
  _atom_site_fract_x
  _atom_site_fract_y
  _atom_site_fract_z
  _atom_site_thermal_displace_type
  _atom_site_B_iso_or_equiv
  _atom_site_type_symbol
  _atom_site_charge
         C1        1.0000    0.37190   0.35720   0.94540   Biso      1.000     C          -0.21261799999999997          
         C2        1.0000    0.24790   0.82650   0.60560   Biso      1.000     C          0.116599  
         C3        1.0000    0.08800   0.80560   0.50460   Biso      1.000     C          0.062902  
         C4        1.0000    0.13640   0.90200   0.47570   Biso      1.000     C          -0.212137           
         C5        1.0000    0.24550   0.96510   0.51240   Biso      1.000     C          0.186115  
         C6        1.0000    0.29890   0.06870   0.47950   Biso      1.000     C          -0.24343099999999998          
         C7        1.0000    0.37560   0.15500   0.52930   Biso      1.000     C          -0.151876           
         C8        1.0000    0.41220   0.26130   0.49110   Biso      1.000     C          -0.23783200000000002          
         C9        1.0000    0.69330   0.43760   0.60110   Biso      1.000     C          0.061863  
         C10       1.0000    0.62810   0.35720   0.55460   Biso      1.000     C          -0.212615           
         C11       1.0000    0.48480   0.35040   0.54070   Biso      1.000     C          0.183557  
         C12       1.0000    0.41140   0.42750   0.57550   Biso      1.000     C          -0.21188  
         C13       1.0000    0.30020   0.92150   0.57800   Biso      1.000     C          -0.201415           
         C14       1.0000    0.48190   0.50460   0.62250   Biso      1.000     C          0.116158  
         C15       1.0000    0.69980   0.92150   0.92200   Biso      1.000     C          -0.201429           
         C16       1.0000    0.75210   0.82650   0.89440   Biso      1.000     C          0.11660699999999999           
         C17       1.0000    0.91200   0.80560   0.99540   Biso      1.000     C          0.062902  
         C18       1.0000    0.86360   0.90200   0.02430   Biso      1.000     C          -0.21213800000000002          
         C19       1.0000    0.75450   0.96510   0.98760   Biso      1.000     C          0.186121  
         C20       1.0000    0.70110   0.06870   0.02050   Biso      1.000     C          -0.243432           
         C21       1.0000    0.62440   0.15500   0.97070   Biso      1.000     C          -0.151876           
         C22       1.0000    0.58780   0.26130   0.00890   Biso      1.000     C          -0.23783200000000002          
         C23       1.0000    0.30670   0.43760   0.89890   Biso      1.000     C          0.061867  
         C24       1.0000    0.51520   0.35040   0.95930   Biso      1.000     C          0.183557  
         C25       1.0000    0.58860   0.42750   0.92450   Biso      1.000     C          -0.21187899999999998          
         C26       1.0000    0.55470   0.69910   0.74010   Biso      1.000     C          -0.45929  
         C27       1.0000    0.55470   0.30090   0.24010   Biso      1.000     C          -0.459287           
         C28       1.0000    0.48190   0.49540   0.12250   Biso      1.000     C          0.116155  
         C29       1.0000    0.41140   0.57250   0.07550   Biso      1.000     C          -0.21188099999999999          
         C30       1.0000    0.69980   0.07850   0.42200   Biso      1.000     C          -0.201429           
         C31       1.0000    0.75210   0.17350   0.39440   Biso      1.000     C          0.116606  
         C32       1.0000    0.91200   0.19440   0.49540   Biso      1.000     C          0.062904  
         C33       1.0000    0.86360   0.09800   0.52430   Biso      1.000     C          -0.21213800000000002          
         C34       1.0000    0.75450   0.03490   0.48760   Biso      1.000     C          0.186121  
         C35       1.0000    0.70110   0.93130   0.52050   Biso      1.000     C          -0.243432           
         C36       1.0000    0.62440   0.84500   0.47070   Biso      1.000     C          -0.151876           
         C37       1.0000    0.58780   0.73870   0.50890   Biso      1.000     C          -0.23783200000000002          
         C38       1.0000    0.30670   0.56240   0.39890   Biso      1.000     C          0.061863999999999995          
         C39       1.0000    0.37190   0.64280   0.44540   Biso      1.000     C          -0.212615           
         C40       1.0000    0.51520   0.64960   0.45930   Biso      1.000     C          0.183557  
         C41       1.0000    0.58860   0.57250   0.42450   Biso      1.000     C          -0.21187899999999998          
         C42       1.0000    0.51810   0.49540   0.37750   Biso      1.000     C          0.116157  
         C43       1.0000    0.44530   0.30090   0.25990   Biso      1.000     C          -0.459143           
         C44       1.0000    0.30020   0.07850   0.07800   Biso      1.000     C          -0.201428           
         C45       1.0000    0.24790   0.17350   0.10560   Biso      1.000     C          0.11660699999999999           
         C46       1.0000    0.08800   0.19440   0.00460   Biso      1.000     C          0.062904  
         C47       1.0000    0.13640   0.09800   0.97570   Biso      1.000     C          -0.21213800000000002          
         C48       1.0000    0.24550   0.03490   0.01240   Biso      1.000     C          0.186121  
         C49       1.0000    0.29890   0.93130   0.97950   Biso      1.000     C          -0.243432           
         C50       1.0000    0.37560   0.84500   0.02930   Biso      1.000     C          -0.151876           
         C51       1.0000    0.41220   0.73870   0.99110   Biso      1.000     C          -0.23783200000000002          
         C52       1.0000    0.69330   0.56240   0.10110   Biso      1.000     C          0.061863  
         C53       1.0000    0.62810   0.64280   0.05460   Biso      1.000     C          -0.212615           
         C54       1.0000    0.48480   0.64960   0.04070   Biso      1.000     C          0.183561  
         C55       1.0000    0.51810   0.50460   0.87750   Biso      1.000     C          0.116157  
         C56       1.0000    0.44530   0.69910   0.75990   Biso      1.000     C          -0.459143           
         Cu1       1.0000    0.96186   0.62483   0.88966   Biso      1.000     Cu          0.331119  
         Cu2       1.0000    0.27939   0.62714   0.78959   Biso      1.000     Cu          0.35397199999999995           
         Cu3       1.0000    0.03814   0.62483   0.61034   Biso      1.000     Cu          0.33111799999999997           
         Cu4       1.0000    0.72061   0.62714   0.71041   Biso      1.000     Cu          0.353995  
         Cu5       1.0000    0.03814   0.37517   0.11034   Biso      1.000     Cu          0.33113899999999996           
         Cu6       1.0000    0.72061   0.37286   0.21041   Biso      1.000     Cu          0.35399200000000003           
         Cu7       1.0000    0.96186   0.37517   0.38966   Biso      1.000     Cu          0.331138  
         Cu8       1.0000    0.27939   0.37286   0.28959   Biso      1.000     Cu          0.353973  
         H1        1.0000    0.67440   0.70560   0.53490   Biso      1.000     H          0.112443  
         H2        1.0000    0.52640   0.75960   0.54470   Biso      1.000     H          0.117123  
         H3        1.0000    0.42870   0.55700   0.64600   Biso      1.000     H          0.09994700000000001           
         H4        1.0000    0.31220   0.42790   0.56730   Biso      1.000     H          0.11921300000000001           
         H5        1.0000    0.68330   0.30550   0.53180   Biso      1.000     H          0.11011800000000001           
         H6        1.0000    0.31680   0.17600   0.56640   Biso      1.000     H          0.094435  
         H7        1.0000    0.47360   0.24040   0.45530   Biso      1.000     H          0.117123  
         H8        1.0000    0.32560   0.29440   0.46510   Biso      1.000     H          0.112444  
         H9        1.0000    0.71170   0.80180   0.84820   Biso      1.000     H          0.10045   
         H10       1.0000    0.46240   0.12010   0.55390   Biso      1.000     H          0.088354  
         H11       1.0000    0.79240   0.44200   0.60800   Biso      1.000     H          0.07095599999999999           
         H12       1.0000    0.98610   0.76510   0.02260   Biso      1.000     H          0.091803  
         H13       1.0000    0.53760   0.12010   0.94610   Biso      1.000     H          0.088354  
         H14       1.0000    0.78140   0.10750   0.04880   Biso      1.000     H          0.12396199999999999           
         H15       1.0000    0.63790   0.04380   0.05460   Biso      1.000     H          0.126631  
         H16       1.0000    0.36210   0.04380   0.44540   Biso      1.000     H          0.126631  
         H17       1.0000    0.68320   0.17600   0.93360   Biso      1.000     H          0.094435  
         H18       1.0000    0.67440   0.29440   0.03490   Biso      1.000     H          0.112443  
         H19       1.0000    0.52640   0.24040   0.04470   Biso      1.000     H          0.117123  
         H20       1.0000    0.20760   0.44200   0.89200   Biso      1.000     H          0.07095599999999999           
         H21       1.0000    0.31670   0.30550   0.96820   Biso      1.000     H          0.11011800000000001           
         H22       1.0000    0.68780   0.42790   0.93270   Biso      1.000     H          0.11921300000000001           
         H23       1.0000    0.57130   0.55700   0.85400   Biso      1.000     H          0.09994700000000001           
         H24       1.0000    0.90510   0.92650   0.07040   Biso      1.000     H          0.13265   
         H25       1.0000    0.21860   0.10750   0.45120   Biso      1.000     H          0.12396199999999999           
         H26       1.0000    0.62280   0.95910   0.89520   Biso      1.000     H          0.128436  
         H27       1.0000    0.01390   0.76510   0.47740   Biso      1.000     H          0.091803  
         H28       1.0000    0.68320   0.82400   0.43360   Biso      1.000     H          0.094435  
         H29       1.0000    0.53760   0.87990   0.44610   Biso      1.000     H          0.088354  
         H30       1.0000    0.63790   0.95620   0.55460   Biso      1.000     H          0.126631  
         H31       1.0000    0.78140   0.89250   0.54880   Biso      1.000     H          0.12396099999999999           
         H32       1.0000    0.90510   0.07350   0.57040   Biso      1.000     H          0.13265   
         H33       1.0000    0.98610   0.23490   0.52260   Biso      1.000     H          0.091804  
         H34       1.0000    0.09490   0.92650   0.42960   Biso      1.000     H          0.13265   
         H35       1.0000    0.62280   0.04090   0.39520   Biso      1.000     H          0.128436  
         H36       1.0000    0.20760   0.55800   0.39200   Biso      1.000     H          0.070957  
         H37       1.0000    0.31670   0.69450   0.46820   Biso      1.000     H          0.11011800000000001           
         H38       1.0000    0.68780   0.57210   0.43270   Biso      1.000     H          0.11921400000000001           
         H39       1.0000    0.57130   0.44300   0.35400   Biso      1.000     H          0.09994700000000001           
         H40       1.0000    0.37720   0.04090   0.10480   Biso      1.000     H          0.128436  
         H41       1.0000    0.28830   0.19820   0.15180   Biso      1.000     H          0.10044700000000001           
         H42       1.0000    0.71170   0.19820   0.34820   Biso      1.000     H          0.10045   
         H43       1.0000    0.09490   0.07350   0.92960   Biso      1.000     H          0.13265   
         H44       1.0000    0.01390   0.23490   0.97740   Biso      1.000     H          0.091804  
         H45       1.0000    0.28830   0.80180   0.65180   Biso      1.000     H          0.100448  
         H46       1.0000    0.37720   0.95910   0.60480   Biso      1.000     H          0.128435  
         H47       1.0000    0.42870   0.44300   0.14600   Biso      1.000     H          0.09994700000000001           
         H48       1.0000    0.68330   0.69450   0.03180   Biso      1.000     H          0.11011800000000001           
         H49       1.0000    0.79240   0.55800   0.10800   Biso      1.000     H          0.070957  
         H50       1.0000    0.47360   0.75960   0.95530   Biso      1.000     H          0.117123  
         H51       1.0000    0.31220   0.57210   0.06730   Biso      1.000     H          0.11921400000000001           
         H52       1.0000    0.32560   0.70560   0.96510   Biso      1.000     H          0.112443  
         H53       1.0000    0.31680   0.82400   0.06640   Biso      1.000     H          0.094435  
         H54       1.0000    0.46240   0.87990   0.05390   Biso      1.000     H          0.088354  
         H55       1.0000    0.36210   0.95620   0.94540   Biso      1.000     H          0.126631  
         H56       1.0000    0.21860   0.89250   0.95120   Biso      1.000     H          0.12396099999999999           
         Mo1       1.0000    0.00000   0.37281   0.25000   Biso      1.000     Mo          0.8361200000000001  
         Mo2       1.0000    0.00000   0.62719   0.75000   Biso      1.000     Mo          0.8361209999999999  
         N1        1.0000    0.85980   0.76480   0.92970   Biso      1.000     N          -0.213865           
         N2        1.0000    0.14020   0.23520   0.07030   Biso      1.000     N          -0.213867           
         N3        1.0000    0.99620   0.47040   0.47490   Biso      1.000     N          -0.036545           
         N4        1.0000    0.62080   0.49050   0.13680   Biso      1.000     N          -0.179024           
         N5        1.0000    0.00380   0.47040   0.02510   Biso      1.000     N          -0.036545           
         N6        1.0000    0.14020   0.76480   0.57030   Biso      1.000     N          -0.213864           
         N7        1.0000    0.62080   0.50950   0.63680   Biso      1.000     N          -0.179024           
         N8        1.0000    0.00380   0.52960   0.52510   Biso      1.000     N          -0.036409           
         N9        1.0000    0.37920   0.50950   0.86320   Biso      1.000     N          -0.17902300000000002          
         N10       1.0000    0.85980   0.23520   0.42970   Biso      1.000     N          -0.21386599999999997          
         N11       1.0000    0.37920   0.49050   0.36320   Biso      1.000     N          -0.17902300000000002          
         N12       1.0000    0.99620   0.52960   0.97490   Biso      1.000     N          -0.036409           
         S1        1.0000    0.84680   0.48000   0.29839   Biso      1.000     S          -0.489166           
         S2        1.0000    0.11840   0.26720   0.33622   Biso      1.000     S          -0.497954           
         S3        1.0000    0.15320   0.48000   0.20161   Biso      1.000     S          -0.48916499999999996          
         S4        1.0000    0.88160   0.26720   0.16378   Biso      1.000     S          -0.49795500000000004          
         S5        1.0000    0.15320   0.52000   0.70161   Biso      1.000     S          -0.48916400000000004          
         S6        1.0000    0.88160   0.73280   0.66378   Biso      1.000     S          -0.497953           
         S7        1.0000    0.11840   0.73280   0.83622   Biso      1.000     S          -0.49795100000000003          
         S8        1.0000    0.84680   0.52000   0.79839   Biso      1.000     S          -0.489166 