
##########################################################################
#               Crystallographic Information Format file
#               Produced by PyCifRW module
#
#  This is a CIF file.  CIF has been adopted by the International
#  Union of Crystallography as the standard for data archiving and
#  transmission.
#
#  For information on this file format, follow the CIF links at
#  http://www.iucr.org
##########################################################################

data_image0

_cell_length_a                          8.969
_cell_length_b                          9.419
_cell_length_c                          17.29
_cell_angle_alpha                       100.468
_cell_angle_beta                        92.754
_cell_angle_gamma                       117.702
_symmetry_space_group_name_H-M          'P 1'
_symmetry_int_tables_number             1
loop_
  _symmetry_equiv_pos_as_xyz
         'x, y, z' 
loop_
  _atom_site_label
  _atom_site_occupancy
  _atom_site_fract_x
  _atom_site_fract_y
  _atom_site_fract_z
  _atom_site_thermal_displace_type
  _atom_site_B_iso_or_equiv
  _atom_site_type_symbol
  _atom_site_charge
         C1        1.0000    0.96850   0.16700   0.91480   Biso      1.000     C          -0.125963           
         C2        1.0000    0.32680   0.35260   0.89180   Biso      1.000     C          -0.2351   
         C3        1.0000    0.25370   0.17560   0.90190   Biso      1.000     C          -0.082369           
         C4        1.0000    0.33020   0.08210   0.85200   Biso      1.000     C          0.629714  
         C5        1.0000    0.06050   0.07970   0.87350   Biso      1.000     C          -0.205087           
         C6        1.0000    0.78110   0.06460   0.88090   Biso      1.000     C          0.639189  
         C7        1.0000    0.04670   0.34580   0.90520   Biso      1.000     C          -0.206413           
         C8        1.0000    0.20850   0.55920   0.65910   Biso      1.000     C          0.100066  
         C9        1.0000    0.09860   0.46880   0.58870   Biso      1.000     C          -0.178707           
         C10       1.0000    0.05890   0.54580   0.53820   Biso      1.000     C          0.112472  
         C11       1.0000    0.13530   0.71490   0.56160   Biso      1.000     C          -0.186809           
         C12       1.0000    0.24370   0.79760   0.63280   Biso      1.000     C          0.093005  
         C13       1.0000    0.68880   0.38380   0.07510   Biso      1.000     C          0.65272   
         C14       1.0000    0.76370   0.55980   0.06410   Biso      1.000     C          -0.11819  
         C15       1.0000    0.67320   0.64740   0.10820   Biso      1.000     C          -0.2351   
         C16       1.0000    0.74630   0.82440   0.09810   Biso      1.000     C          -0.082369           
         C17       1.0000    0.66980   0.91790   0.14800   Biso      1.000     C          0.629714  
         C18       1.0000    0.93950   0.92030   0.12650   Biso      1.000     C          -0.205087           
         C19       1.0000    0.03150   0.83300   0.08520   Biso      1.000     C          -0.125963           
         C20       1.0000    0.21890   0.93540   0.11910   Biso      1.000     C          0.639189  
         C21       1.0000    0.95330   0.65420   0.09480   Biso      1.000     C          -0.206413           
         C22       1.0000    0.79150   0.44080   0.34090   Biso      1.000     C          0.100066  
         C23       1.0000    0.90140   0.53120   0.41130   Biso      1.000     C          -0.178707           
         C24       1.0000    0.94110   0.45420   0.46180   Biso      1.000     C          0.112471  
         C25       1.0000    0.86470   0.28510   0.43840   Biso      1.000     C          -0.186809           
         C26       1.0000    0.75630   0.20240   0.36720   Biso      1.000     C          0.093005  
         C27       1.0000    0.23630   0.44020   0.93590   Biso      1.000     C          -0.118189           
         C28       1.0000    0.31120   0.61620   0.92490   Biso      1.000     C          0.65272   
         Cd1       1.0000    0.45725   0.84964   0.79928   Biso      1.000     Cd          0.894313  
         Cd2       1.0000    0.54275   0.15036   0.20072   Biso      1.000     Cd          0.894313  
         Cd3       1.0000    0.50000   0.00000   0.00000   Biso      1.000     Cd          1.084532  
         H1        1.0000    0.88640   0.22610   0.47090   Biso      1.000     H          0.130222  
         H2        1.0000    0.25100   0.44900   0.99200   Biso      1.000     H          0.093301  
         H3        1.0000    0.44760   0.41310   0.91250   Biso      1.000     H          0.112901  
         H4        1.0000    0.31350   0.35150   0.83570   Biso      1.000     H          0.108618  
         H5        1.0000    0.29700   0.17900   0.96500   Biso      1.000     H          0.077217  
         H6        1.0000    0.01500   0.97060   0.88400   Biso      1.000     H          0.110911  
         H7        1.0000    0.70680   0.08810   0.35290   Biso      1.000     H          0.127105  
         H8        1.0000    0.97500   0.16600   0.96400   Biso      1.000     H          0.10804   
         H9        1.0000    0.99060   0.40040   0.93420   Biso      1.000     H          0.109976  
         H10       1.0000    0.02810   0.34550   0.84940   Biso      1.000     H          0.108453  
         H11       1.0000    0.23320   0.50280   0.69220   Biso      1.000     H          0.110787  
         H12       1.0000    0.05140   0.35470   0.57570   Biso      1.000     H          0.131713  
         H13       1.0000    0.03910   0.06680   0.81640   Biso      1.000     H          0.10897   
         H14       1.0000    0.29320   0.91190   0.64710   Biso      1.000     H          0.127104  
         H15       1.0000    0.74900   0.55100   0.00800   Biso      1.000     H          0.093302  
         H16       1.0000    0.55240   0.58690   0.08750   Biso      1.000     H          0.112901  
         H17       1.0000    0.68650   0.64850   0.16430   Biso      1.000     H          0.108618  
         H18       1.0000    0.70300   0.82100   0.03500   Biso      1.000     H          0.077217  
         H19       1.0000    0.98500   0.02940   0.11600   Biso      1.000     H          0.110911  
         H20       1.0000    0.96090   0.93320   0.18360   Biso      1.000     H          0.10897   
         H21       1.0000    0.02500   0.83400   0.03600   Biso      1.000     H          0.10804   
         H22       1.0000    0.00940   0.59960   0.06580   Biso      1.000     H          0.109976  
         H23       1.0000    0.97190   0.65450   0.15060   Biso      1.000     H          0.108453  
         H24       1.0000    0.76680   0.49720   0.30780   Biso      1.000     H          0.110787  
         H25       1.0000    0.94860   0.64530   0.42430   Biso      1.000     H          0.131713  
         H26       1.0000    0.11360   0.77390   0.52910   Biso      1.000     H          0.130223  
         N1        1.0000    0.71940   0.27860   0.31790   Biso      1.000     N          -0.204225           
         N2        1.0000    0.28060   0.72140   0.68210   Biso      1.000     N          -0.204225           
         O1        1.0000    0.31880   0.63390   0.85480   Biso      1.000     O          -0.601386           
         O2        1.0000    0.35970   0.72800   0.98670   Biso      1.000     O          -0.57435  
         O3        1.0000    0.72920   0.07280   0.81380   Biso      1.000     O          -0.560357           
         O4        1.0000    0.68410   0.96260   0.91780   Biso      1.000     O          -0.612464           
         O5        1.0000    0.35870   0.09720   0.78430   Biso      1.000     O          -0.58719  
         O6        1.0000    0.35160   0.97920   0.88340   Biso      1.000     O          -0.623353           
         O7        1.0000    0.68120   0.36610   0.14520   Biso      1.000     O          -0.601386           
         O8        1.0000    0.64030   0.27200   0.01330   Biso      1.000     O          -0.57435  
         O9        1.0000    0.27080   0.92720   0.18620   Biso      1.000     O          -0.560356           
         O10       1.0000    0.31590   0.03740   0.08220   Biso      1.000     O          -0.612464           
         O11       1.0000    0.64130   0.90280   0.21570   Biso      1.000     O          -0.58719  
         O12       1.0000    0.64840   0.02080   0.11660   Biso      1.000     O          -0.623353 