
##########################################################################
#               Crystallographic Information Format file
#               Produced by PyCifRW module
#
#  This is a CIF file.  CIF has been adopted by the International
#  Union of Crystallography as the standard for data archiving and
#  transmission.
#
#  For information on this file format, follow the CIF links at
#  http://www.iucr.org
##########################################################################

data_image0

_cell_length_a                          7.6687
_cell_length_b                          12.6809
_cell_length_c                          12.6809
_cell_angle_alpha                       84.7542
_cell_angle_beta                        72.3999
_cell_angle_gamma                       72.3998
_symmetry_space_group_name_H-M          'P 1'
_symmetry_int_tables_number             1
loop_
  _symmetry_equiv_pos_as_xyz
         'x, y, z' 
loop_
  _atom_site_label
  _atom_site_occupancy
  _atom_site_fract_x
  _atom_site_fract_y
  _atom_site_fract_z
  _atom_site_thermal_displace_type
  _atom_site_B_iso_or_equiv
  _atom_site_type_symbol
  _atom_site_charge
         C1        1.0000    0.00840   0.36660   0.86660   Biso      1.000     C          0.312708  
         C2        1.0000    0.62500   0.29870   0.20130   Biso      1.000     C          -0.372261           
         C3        1.0000    0.62500   0.13340   0.36660   Biso      1.000     C          0.31511   
         C4        1.0000    0.12500   0.70130   0.79870   Biso      1.000     C          -0.369214           
         C5        1.0000    0.12500   0.86660   0.63340   Biso      1.000     C          0.315313  
         C6        1.0000    0.18420   0.30760   0.67660   Biso      1.000     C          0.540604  
         C7        1.0000    0.16840   0.69240   0.32340   Biso      1.000     C          0.541977  
         C8        1.0000    0.13920   0.67660   0.69240   Biso      1.000     C          0.541384  
         C9        1.0000    0.50820   0.32340   0.30760   Biso      1.000     C          0.540894  
         C10       1.0000    0.08160   0.17660   0.80760   Biso      1.000     C          0.541954  
         C11       1.0000    0.06580   0.82340   0.19240   Biso      1.000     C          0.540611  
         C12       1.0000    0.74180   0.19240   0.17660   Biso      1.000     C          0.540893  
         C13       1.0000    0.11080   0.80760   0.82340   Biso      1.000     C          0.541382  
         C14       1.0000    0.17370   0.20130   0.70130   Biso      1.000     C          -0.368632           
         C15       1.0000    0.24160   0.63340   0.13340   Biso      1.000     C          0.312719  
         C16       1.0000    0.07630   0.79870   0.29870   Biso      1.000     C          -0.368641           
         H1        1.0000    0.22820   0.14680   0.64680   Biso      1.000     H          0.162214  
         H2        1.0000    0.02180   0.85320   0.35320   Biso      1.000     H          0.162218  
         H3        1.0000    0.62500   0.35320   0.14680   Biso      1.000     H          0.162952  
         H4        1.0000    0.12500   0.64680   0.85320   Biso      1.000     H          0.162418  
         Mn1       1.0000    0.00000   0.00000   0.00000   Biso      1.000     Mn          1.186569  
         Mn2       1.0000    0.25000   0.50000   0.50000   Biso      1.000     Mn          1.186593  
         N1        1.0000    0.10170   0.38660   0.76080   Biso      1.000     N          -0.302713           
         N2        1.0000    0.24910   0.61340   0.23920   Biso      1.000     N          -0.30127  
         N3        1.0000    0.51170   0.23920   0.38660   Biso      1.000     N          -0.302613           
         N4        1.0000    0.00090   0.26080   0.88660   Biso      1.000     N          -0.301249           
         N5        1.0000    0.14830   0.73920   0.11340   Biso      1.000     N          -0.302719           
         N6        1.0000    0.13750   0.76080   0.61340   Biso      1.000     N          -0.302671           
         N7        1.0000    0.11250   0.88660   0.73920   Biso      1.000     N          -0.302672           
         N8        1.0000    0.73830   0.11340   0.26080   Biso      1.000     N          -0.302612           
         O1        1.0000    0.19761   0.65884   0.41394   Biso      1.000     O          -0.53149  
         O2        1.0000    0.10645   0.84116   0.91394   Biso      1.000     O          -0.531311           
         O3        1.0000    0.86155   0.15884   0.08606   Biso      1.000     O          -0.529532           
         O4        1.0000    0.97961   0.91394   0.15884   Biso      1.000     O          -0.530092           
         O5        1.0000    0.05239   0.08606   0.84116   Biso      1.000     O          -0.531476           
         O6        1.0000    0.38845   0.41394   0.34116   Biso      1.000     O          -0.529533           
         O7        1.0000    0.14355   0.58606   0.65884   Biso      1.000     O          -0.531316           
         O8        1.0000    0.27039   0.34116   0.58606   Biso      1.000     O          -0.530091           
         S1        1.0000    0.91250   0.46250   0.96250   Biso      1.000     S          -0.116218           
         S2        1.0000    0.33750   0.53750   0.03750   Biso      1.000     S          -0.116214           
         S3        1.0000    0.62500   0.03750   0.46250   Biso      1.000     S          -0.116957           
         S4        1.0000    0.12500   0.96250   0.53750   Biso      1.000     S          -0.117014 