
##########################################################################
#               Crystallographic Information Format file
#               Produced by PyCifRW module
#
#  This is a CIF file.  CIF has been adopted by the International
#  Union of Crystallography as the standard for data archiving and
#  transmission.
#
#  For information on this file format, follow the CIF links at
#  http://www.iucr.org
##########################################################################

data_image0

_cell_length_a                          7.5571
_cell_length_b                          12.571
_cell_length_c                          12.571
_cell_angle_alpha                       84.8165
_cell_angle_beta                        72.5078
_cell_angle_gamma                       72.5078
_symmetry_space_group_name_H-M          'P 1'
_symmetry_int_tables_number             1
loop_
  _symmetry_equiv_pos_as_xyz
         'x, y, z' 
loop_
  _atom_site_label
  _atom_site_occupancy
  _atom_site_fract_x
  _atom_site_fract_y
  _atom_site_fract_z
  _atom_site_thermal_displace_type
  _atom_site_B_iso_or_equiv
  _atom_site_type_symbol
  _atom_site_charge
         C1        1.0000    0.57780   0.29720   0.79720   Biso      1.000     C          -0.365203           
         C2        1.0000    0.74300   0.13200   0.63200   Biso      1.000     C          0.301655  
         C3        1.0000    0.50700   0.86800   0.36800   Biso      1.000     C          0.301669  
         C4        1.0000    0.67220   0.70280   0.20280   Biso      1.000     C          -0.365211           
         C5        1.0000    0.12500   0.36800   0.13200   Biso      1.000     C          0.299675  
         C6        1.0000    0.62500   0.63200   0.86800   Biso      1.000     C          0.299115  
         C7        1.0000    0.62500   0.79720   0.70280   Biso      1.000     C          -0.363368           
         C8        1.0000    0.67020   0.32370   0.69110   Biso      1.000     C          0.540036  
         C9        1.0000    0.68500   0.67630   0.30890   Biso      1.000     C          0.540345  
         C10       1.0000    0.63870   0.69110   0.67630   Biso      1.000     C          0.539729  
         C11       1.0000    0.12500   0.20280   0.29720   Biso      1.000     C          -0.3679   
         C12       1.0000    0.56500   0.19110   0.82370   Biso      1.000     C          0.540341  
         C13       1.0000    0.57980   0.80890   0.17630   Biso      1.000     C          0.540039  
         C14       1.0000    0.24390   0.17630   0.19110   Biso      1.000     C          0.542128  
         C15       1.0000    0.61130   0.82370   0.80890   Biso      1.000     C          0.539729  
         C16       1.0000    0.00610   0.30890   0.32370   Biso      1.000     C          0.542129  
         H1        1.0000    0.52300   0.35200   0.85200   Biso      1.000     H          0.158299  
         H2        1.0000    0.72700   0.64800   0.14800   Biso      1.000     H          0.158301  
         H3        1.0000    0.12500   0.14800   0.35200   Biso      1.000     H          0.158955  
         H4        1.0000    0.62500   0.85200   0.64800   Biso      1.000     H          0.158025  
         N1        1.0000    0.63620   0.60990   0.76250   Biso      1.000     N          -0.304819           
         N2        1.0000    0.00860   0.39010   0.23750   Biso      1.000     N          -0.304848           
         N3        1.0000    0.64870   0.10990   0.73750   Biso      1.000     N          -0.305935           
         N4        1.0000    0.49610   0.89010   0.26250   Biso      1.000     N          -0.305215           
         N5        1.0000    0.24140   0.26250   0.10990   Biso      1.000     N          -0.304847           
         N6        1.0000    0.61380   0.73750   0.89010   Biso      1.000     N          -0.30482  
         N7        1.0000    0.75390   0.23750   0.60990   Biso      1.000     N          -0.305217           
         N8        1.0000    0.60130   0.76250   0.39010   Biso      1.000     N          -0.305933           
         O1        1.0000    0.36348   0.08381   0.15603   Biso      1.000     O          -0.521951           
         O2        1.0000    0.55271   0.84397   0.08381   Biso      1.000     O          -0.520926           
         O3        1.0000    0.64668   0.65603   0.58381   Biso      1.000     O          -0.520863           
         O4        1.0000    0.88652   0.34397   0.41619   Biso      1.000     O          -0.52195  
         O5        1.0000    0.60332   0.91619   0.84397   Biso      1.000     O          -0.520862           
         O6        1.0000    0.48049   0.15603   0.91619   Biso      1.000     O          -0.520854           
         O7        1.0000    0.69729   0.41619   0.65603   Biso      1.000     O          -0.520925           
         O8        1.0000    0.76951   0.58381   0.34397   Biso      1.000     O          -0.520856           
         S1        1.0000    0.40906   0.96594   0.46594   Biso      1.000     S          -0.050973           
         S2        1.0000    0.12500   0.46594   0.03406   Biso      1.000     S          -0.050652           
         S3        1.0000    0.62500   0.53406   0.96594   Biso      1.000     S          -0.05046  
         S4        1.0000    0.84094   0.03406   0.53406   Biso      1.000     S          -0.050955           
         Zn1       1.0000    0.75000   0.50000   0.50000   Biso      1.000     Zn          1.057687  
         Zn2       1.0000    0.50000   0.00000   0.00000   Biso      1.000     Zn          1.057687 