
##########################################################################
#               Crystallographic Information Format file
#               Produced by PyCifRW module
#
#  This is a CIF file.  CIF has been adopted by the International
#  Union of Crystallography as the standard for data archiving and
#  transmission.
#
#  For information on this file format, follow the CIF links at
#  http://www.iucr.org
##########################################################################

data_image0

_cell_length_a                          9.732
_cell_length_b                          10.596
_cell_length_c                          12.592
_cell_angle_alpha                       111.37
_cell_angle_beta                        106.05
_cell_angle_gamma                       96.36
_symmetry_space_group_name_H-M          'P 1'
_symmetry_int_tables_number             1
loop_
  _symmetry_equiv_pos_as_xyz
         'x, y, z' 
loop_
  _atom_site_label
  _atom_site_occupancy
  _atom_site_fract_x
  _atom_site_fract_y
  _atom_site_fract_z
  _atom_site_thermal_displace_type
  _atom_site_B_iso_or_equiv
  _atom_site_type_symbol
  _atom_site_charge
         C1        1.0000    0.01920   0.43330   0.46530   Biso      1.000     C          -0.296702           
         C2        1.0000    0.51580   0.43190   0.46980   Biso      1.000     C          -0.311358           
         C3        1.0000    0.43450   0.31170   0.48230   Biso      1.000     C          0.689757  
         C4        1.0000    0.55970   0.96510   0.01400   Biso      1.000     C          -0.30752  
         C5        1.0000    0.63440   0.99680   0.14670   Biso      1.000     C          0.666289  
         C6        1.0000    0.98080   0.56670   0.53470   Biso      1.000     C          -0.296702           
         C7        1.0000    0.06460   0.69010   0.52570   Biso      1.000     C          0.69255   
         C8        1.0000    0.43040   0.45560   0.96270   Biso      1.000     C          -0.296582           
         C9        1.0000    0.41590   0.35810   0.83490   Biso      1.000     C          0.659793  
         C10       1.0000    0.48420   0.56810   0.53020   Biso      1.000     C          -0.311359           
         C11       1.0000    0.56550   0.68830   0.51770   Biso      1.000     C          0.689756  
         C12       1.0000    0.44030   0.03490   0.98600   Biso      1.000     C          -0.307519           
         C13       1.0000    0.36560   0.00320   0.85330   Biso      1.000     C          0.666288  
         C14       1.0000    0.93540   0.30990   0.47430   Biso      1.000     C          0.69255   
         C15       1.0000    0.56960   0.54440   0.03730   Biso      1.000     C          -0.296583           
         C16       1.0000    0.58410   0.64190   0.16510   Biso      1.000     C          0.659794  
         Cu1       1.0000    0.64387   0.99288   0.59566   Biso      1.000     Cu          0.999763  
         Cu2       1.0000    0.35613   0.00712   0.40434   Biso      1.000     Cu          0.999764  
         Cu3       1.0000    0.93302   0.10931   0.58779   Biso      1.000     Cu          1.078747  
         Cu4       1.0000    0.75785   0.79397   0.41454   Biso      1.000     Cu          0.997078  
         Cu5       1.0000    0.34029   0.89340   0.60589   Biso      1.000     Cu          1.016753  
         Cu6       1.0000    0.06698   0.89069   0.41221   Biso      1.000     Cu          1.078753  
         Cu7       1.0000    0.24215   0.20603   0.58546   Biso      1.000     Cu          0.997081  
         Cu8       1.0000    0.65971   0.10660   0.39411   Biso      1.000     Cu          1.016756  
         H1        1.0000    0.84890   0.89100   0.62930   Biso      1.000     H          0.441603  
         H2        1.0000    0.64000   0.48700   0.04330   Biso      1.000     H          0.125196  
         H3        1.0000    0.59740   0.60060   0.99730   Biso      1.000     H          0.137156  
         H4        1.0000    0.12410   0.44190   0.49830   Biso      1.000     H          0.135356  
         H5        1.0000    0.99460   0.41790   0.38080   Biso      1.000     H          0.14739   
         H6        1.0000    0.36580   0.00960   0.01710   Biso      1.000     H          0.137846  
         H7        1.0000    0.48010   0.13490   0.02980   Biso      1.000     H          0.142978  
         H8        1.0000    0.37940   0.56010   0.49720   Biso      1.000     H          0.146366  
         H9        1.0000    0.16550   0.04770   0.67530   Biso      1.000     H          0.39435   
         H10       1.0000    0.51540   0.87290   0.33120   Biso      1.000     H          0.436702  
         H11       1.0000    0.50860   0.58940   0.61590   Biso      1.000     H          0.159501  
         H12       1.0000    0.70120   0.19730   0.59820   Biso      1.000     H          0.519524  
         H13       1.0000    0.48460   0.12710   0.66880   Biso      1.000     H          0.436702  
         H14       1.0000    0.40260   0.39940   0.00270   Biso      1.000     H          0.137155  
         H15       1.0000    0.87590   0.55810   0.50170   Biso      1.000     H          0.135355  
         H16       1.0000    0.00540   0.58210   0.61920   Biso      1.000     H          0.14739   
         H17       1.0000    0.63420   0.99040   0.98290   Biso      1.000     H          0.137846  
         H18       1.0000    0.36000   0.51300   0.95670   Biso      1.000     H          0.125197  
         H19       1.0000    0.62060   0.43990   0.50280   Biso      1.000     H          0.146365  
         H20       1.0000    0.49140   0.41060   0.38410   Biso      1.000     H          0.1595    
         H21       1.0000    0.15110   0.10900   0.37070   Biso      1.000     H          0.441602  
         H22       1.0000    0.83450   0.95230   0.32470   Biso      1.000     H          0.39435   
         H23       1.0000    0.51990   0.86510   0.97020   Biso      1.000     H          0.142979  
         H24       1.0000    0.29880   0.80270   0.40180   Biso      1.000     H          0.519523  
         O1        1.0000    0.51780   0.30050   0.81850   Biso      1.000     O          -0.583276           
         O2        1.0000    0.99480   0.73720   0.45470   Biso      1.000     O          -0.595557           
         O3        1.0000    0.19930   0.73390   0.58890   Biso      1.000     O          -0.557266           
         O4        1.0000    0.75260   0.96300   0.17520   Biso      1.000     O          -0.578091           
         O5        1.0000    0.35660   0.33620   0.54840   Biso      1.000     O          -0.547524           
         O6        1.0000    0.45360   0.19340   0.42470   Biso      1.000     O          -0.612308           
         O7        1.0000    0.17480   0.06420   0.41600   Biso      1.000     O          -0.914095           
         O8        1.0000    0.87460   0.93120   0.38670   Biso      1.000     O          -0.964237           
         O9        1.0000    0.29650   0.34190   0.75310   Biso      1.000     O          -0.554652           
         O10       1.0000    0.57280   0.05740   0.22050   Biso      1.000     O          -0.549048           
         O11       1.0000    0.46840   0.05450   0.61530   Biso      1.000     O          -1.015945           
         O12       1.0000    0.24740   0.03700   0.82480   Biso      1.000     O          -0.578091           
         O13       1.0000    0.12540   0.06880   0.61330   Biso      1.000     O          -0.964238           
         O14       1.0000    0.82520   0.93580   0.58400   Biso      1.000     O          -0.914093           
         O15       1.0000    0.54640   0.80660   0.57530   Biso      1.000     O          -0.612307           
         O16       1.0000    0.64340   0.66380   0.45160   Biso      1.000     O          -0.547522           
         O17       1.0000    0.42720   0.94260   0.77950   Biso      1.000     O          -0.549047           
         O18       1.0000    0.80070   0.26610   0.41110   Biso      1.000     O          -0.557266           
         O19       1.0000    0.00520   0.26280   0.54530   Biso      1.000     O          -0.595556           
         O20       1.0000    0.48220   0.69950   0.18150   Biso      1.000     O          -0.583277           
         O21       1.0000    0.70350   0.65810   0.24690   Biso      1.000     O          -0.554651           
         O22       1.0000    0.25980   0.84920   0.43050   Biso      1.000     O          -1.040543           
         O23       1.0000    0.74020   0.15080   0.56950   Biso      1.000     O          -1.040543           
         O24       1.0000    0.53160   0.94550   0.38470   Biso      1.000     O          -1.015945 