
##########################################################################
#               Crystallographic Information Format file
#               Produced by PyCifRW module
#
#  This is a CIF file.  CIF has been adopted by the International
#  Union of Crystallography as the standard for data archiving and
#  transmission.
#
#  For information on this file format, follow the CIF links at
#  http://www.iucr.org
##########################################################################

data_image0

_cell_length_a                          15.7345
_cell_length_b                          15.7442
_cell_length_c                          20.5801
_cell_angle_alpha                       90
_cell_angle_beta                        90
_cell_angle_gamma                       112.118
_symmetry_space_group_name_H-M          'P 1'
_symmetry_int_tables_number             1
loop_
  _symmetry_equiv_pos_as_xyz
         'x, y, z' 
loop_
  _atom_site_label
  _atom_site_occupancy
  _atom_site_fract_x
  _atom_site_fract_y
  _atom_site_fract_z
  _atom_site_thermal_displace_type
  _atom_site_B_iso_or_equiv
  _atom_site_type_symbol
  _atom_site_charge
         C1        1.0000    0.51010   0.91680   0.18704   Biso      1.000     C          0.127104  
         C2        1.0000    0.89740   0.40050   0.55343   Biso      1.000     C          0.23276599999999997           
         C3        1.0000    0.56600   0.97510   0.24361   Biso      1.000     C          -0.305028           
         C4        1.0000    0.97040   0.57140   0.25966   Biso      1.000     C          -0.303164           
         C5        1.0000    0.58690   0.98690   0.81592   Biso      1.000     C          0.135493  
         C6        1.0000    0.02960   0.42860   0.74034   Biso      1.000     C          -0.303164           
         C7        1.0000    0.55550   0.95970   0.12213   Biso      1.000     C          -0.29878699999999997          
         C8        1.0000    0.55840   0.05730   0.11597   Biso      1.000     C          0.143117  
         C9        1.0000    0.54090   0.94470   0.88050   Biso      1.000     C          -0.301702           
         C10       1.0000    0.44160   0.94270   0.88403   Biso      1.000     C          0.143117  
         C11       1.0000    0.43080   0.92670   0.76175   Biso      1.000     C          0.13589400000000001           
         C12       1.0000    0.51000   0.82220   0.19142   Biso      1.000     C          0.278559  
         C13       1.0000    0.56920   0.07330   0.23825   Biso      1.000     C          0.13589400000000001           
         C14       1.0000    0.60260   0.09950   0.05343   Biso      1.000     C          0.232764  
         C15       1.0000    0.91090   0.41560   0.31021   Biso      1.000     C          -0.305857           
         C16       1.0000    0.41310   0.01310   0.18408   Biso      1.000     C          0.135493  
         C17       1.0000    0.45910   0.05530   0.11950   Biso      1.000     C          -0.301703           
         C18       1.0000    0.18320   0.48480   0.68576   Biso      1.000     C          0.28007   
         C19       1.0000    0.61430   0.11460   0.17293   Biso      1.000     C          -0.304654           
         C20       1.0000    0.41090   0.91560   0.18979   Biso      1.000     C          -0.305857           
         C21       1.0000    0.62690   0.13210   0.29159   Biso      1.000     C          0.23878000000000002           
         C22       1.0000    0.81680   0.51520   0.31424   Biso      1.000     C          0.280069  
         C23       1.0000    0.95910   0.55530   0.38050   Biso      1.000     C          -0.301702           
         C24       1.0000    0.94450   0.54030   0.62213   Biso      1.000     C          -0.29878699999999997          
         C25       1.0000    0.99000   0.67780   0.69142   Biso      1.000     C          0.278557  
         C26       1.0000    0.88570   0.38540   0.67293   Biso      1.000     C          -0.304654           
         C27       1.0000    0.10260   0.59950   0.44657   Biso      1.000     C          0.23276799999999997           
         C28       1.0000    0.91310   0.51310   0.31592   Biso      1.000     C          0.135493  
         C29       1.0000    0.08690   0.48690   0.68408   Biso      1.000     C          0.135493  
         C30       1.0000    0.68320   0.98480   0.81424   Biso      1.000     C          0.280069  
         C31       1.0000    0.39740   0.90050   0.94657   Biso      1.000     C          0.23276799999999997           
         C32       1.0000    0.47040   0.07140   0.24034   Biso      1.000     C          -0.303163           
         C33       1.0000    0.93400   0.52490   0.74361   Biso      1.000     C          -0.305028           
         C34       1.0000    0.43400   0.02490   0.75639   Biso      1.000     C          -0.305027           
         C35       1.0000    0.08910   0.58440   0.68979   Biso      1.000     C          -0.305857           
         C36       1.0000    0.48990   0.08320   0.81296   Biso      1.000     C          0.127104  
         C37       1.0000    0.98990   0.58320   0.68704   Biso      1.000     C          0.127104  
         C38       1.0000    0.37310   0.86790   0.70841   Biso      1.000     C          0.23878000000000002           
         C39       1.0000    0.58910   0.08440   0.81021   Biso      1.000     C          -0.305857           
         C40       1.0000    0.94160   0.44270   0.61597   Biso      1.000     C          0.143117  
         C41       1.0000    0.01000   0.32220   0.30858   Biso      1.000     C          0.278559  
         C42       1.0000    0.31680   0.01520   0.18576   Biso      1.000     C          0.28007   
         C43       1.0000    0.49000   0.17780   0.80858   Biso      1.000     C          0.278557  
         C44       1.0000    0.11430   0.61460   0.32707   Biso      1.000     C          -0.304654           
         C45       1.0000    0.06600   0.47510   0.25639   Biso      1.000     C          -0.305028           
         C46       1.0000    0.87310   0.36790   0.79159   Biso      1.000     C          0.23877800000000002           
         C47       1.0000    0.04090   0.44470   0.61950   Biso      1.000     C          -0.301702           
         C48       1.0000    0.05840   0.55730   0.38403   Biso      1.000     C          0.143117  
         C49       1.0000    0.44450   0.04030   0.87787   Biso      1.000     C          -0.29878699999999997          
         C50       1.0000    0.38570   0.88540   0.82707   Biso      1.000     C          -0.304654           
         C51       1.0000    0.05550   0.45970   0.37787   Biso      1.000     C          -0.29878699999999997          
         C52       1.0000    0.12690   0.63210   0.20841   Biso      1.000     C          0.238777  
         C53       1.0000    0.06920   0.57330   0.26175   Biso      1.000     C          0.13589400000000001           
         C54       1.0000    0.01010   0.41680   0.31296   Biso      1.000     C          0.127104  
         C55       1.0000    0.52960   0.92860   0.75966   Biso      1.000     C          -0.303164           
         C56       1.0000    0.93080   0.42670   0.73825   Biso      1.000     C          0.13589400000000001           
         Cl1       1.0000    0.41103   0.64891   0.52506   Biso      1.000     Cl          -0.518795           
         Cl2       1.0000    0.33995   0.59744   0.02717   Biso      1.000     Cl          -0.517105           
         Cl3       1.0000    0.91103   0.14891   0.97494   Biso      1.000     Cl          -0.518796           
         Cl4       1.0000    0.83995   0.09744   0.47283   Biso      1.000     Cl          -0.517105           
         Cl5       1.0000    0.58897   0.35109   0.47494   Biso      1.000     Cl          -0.518795           
         Cl6       1.0000    0.08897   0.85109   0.02506   Biso      1.000     Cl          -0.518794           
         Cl7       1.0000    0.16005   0.90256   0.52717   Biso      1.000     Cl          -0.517104           
         Cl8       1.0000    0.66005   0.40256   0.97283   Biso      1.000     Cl          -0.517105           
         H1        1.0000    0.62910   0.97570   0.24260   Biso      1.000     H          0.129198  
         H2        1.0000    0.46250   0.05210   0.71460   Biso      1.000     H          0.131045  
         H3        1.0000    0.03750   0.44790   0.21460   Biso      1.000     H          0.131045  
         H4        1.0000    0.11860   0.46040   0.37980   Biso      1.000     H          0.133963  
         H5        1.0000    0.17760   0.61580   0.32860   Biso      1.000     H          0.131543  
         H6        1.0000    0.02810   0.36530   0.73700   Biso      1.000     H          0.128689  
         H7        1.0000    0.11750   0.67850   0.33090   Biso      1.000     H          0.13081099999999998           
         H8        1.0000    0.47190   0.13470   0.23700   Biso      1.000     H          0.128689  
         H9        1.0000    0.61860   0.96040   0.12020   Biso      1.000     H          0.133962  
         H10       1.0000    0.12910   0.47570   0.25740   Biso      1.000     H          0.129198  
         H11       1.0000    0.37090   0.02430   0.75740   Biso      1.000     H          0.129198  
         H12       1.0000    0.53750   0.94790   0.28540   Biso      1.000     H          0.131045  
         H13       1.0000    0.61840   0.11180   0.76870   Biso      1.000     H          0.132134  
         H14       1.0000    0.32240   0.88420   0.82860   Biso      1.000     H          0.131543  
         H15       1.0000    0.11840   0.61180   0.73130   Biso      1.000     H          0.132134  
         H16       1.0000    0.07720   0.48110   0.58280   Biso      1.000     H          0.11850699999999999           
         H17       1.0000    0.38140   0.03960   0.87980   Biso      1.000     H          0.133963  
         H18       1.0000    0.82240   0.38420   0.67140   Biso      1.000     H          0.131543  
         H19       1.0000    0.92280   0.51890   0.41720   Biso      1.000     H          0.11850699999999999           
         H20       1.0000    0.87410   0.37770   0.34620   Biso      1.000     H          0.090972  
         H21       1.0000    0.87090   0.52430   0.74260   Biso      1.000     H          0.129198  
         H22       1.0000    0.55850   0.95460   0.71770   Biso      1.000     H          0.129606  
         H23       1.0000    0.42280   0.01890   0.08280   Biso      1.000     H          0.11850699999999999           
         H24       1.0000    0.97980   0.57780   0.58540   Biso      1.000     H          0.11674000000000001           
         H25       1.0000    0.88160   0.38820   0.26870   Biso      1.000     H          0.132134  
         H26       1.0000    0.88250   0.32150   0.66910   Biso      1.000     H          0.13081099999999998           
         H27       1.0000    0.62590   0.12230   0.84620   Biso      1.000     H          0.090972  
         H28       1.0000    0.61750   0.17850   0.16910   Biso      1.000     H          0.13081099999999998           
         H29       1.0000    0.03940   0.38150   0.61560   Biso      1.000     H          0.133623  
         H30       1.0000    0.38160   0.88820   0.23130   Biso      1.000     H          0.132134  
         H31       1.0000    0.53940   0.88150   0.88440   Biso      1.000     H          0.133623  
         H32       1.0000    0.12590   0.62230   0.65380   Biso      1.000     H          0.09097100000000001           
         H33       1.0000    0.02020   0.42220   0.41460   Biso      1.000     H          0.11674000000000001           
         H34       1.0000    0.52020   0.92220   0.08540   Biso      1.000     H          0.11674000000000001           
         H35       1.0000    0.96060   0.61850   0.38440   Biso      1.000     H          0.133623  
         H36       1.0000    0.44150   0.04540   0.28230   Biso      1.000     H          0.129606  
         H37       1.0000    0.57720   0.98110   0.91720   Biso      1.000     H          0.11850699999999999           
         H38       1.0000    0.88140   0.53960   0.62020   Biso      1.000     H          0.133962  
         H39       1.0000    0.96250   0.55210   0.78540   Biso      1.000     H          0.131045  
         H40       1.0000    0.94150   0.54540   0.21770   Biso      1.000     H          0.129606  
         H41       1.0000    0.47980   0.07780   0.91460   Biso      1.000     H          0.11674000000000001           
         H42       1.0000    0.46060   0.11850   0.11560   Biso      1.000     H          0.133623  
         H43       1.0000    0.67760   0.11580   0.17140   Biso      1.000     H          0.131543  
         H44       1.0000    0.38250   0.82150   0.83090   Biso      1.000     H          0.13081099999999998           
         H45       1.0000    0.37410   0.87770   0.15380   Biso      1.000     H          0.090972  
         H46       1.0000    0.05850   0.45460   0.78230   Biso      1.000     H          0.129606  
         H47       1.0000    0.97190   0.63470   0.26300   Biso      1.000     H          0.128689  
         H48       1.0000    0.52810   0.86530   0.76300   Biso      1.000     H          0.128689  
         N1        1.0000    0.41920   0.83770   0.97899   Biso      1.000     N          -0.254232           
         N2        1.0000    0.79320   0.94130   0.79482   Biso      1.000     N          -0.100633           
         N3        1.0000    0.70410   0.12570   0.31501   Biso      1.000     N          -0.260666           
         N4        1.0000    0.17340   0.98890   0.16609   Biso      1.000     N          -0.045366000000000004         
         N5        1.0000    0.38800   0.79710   0.68172   Biso      1.000     N          -0.25604  
         N6        1.0000    0.70680   0.55870   0.29482   Biso      1.000     N          -0.100633           
         N7        1.0000    0.04450   0.75120   0.65764   Biso      1.000     N          -0.172535           
         N8        1.0000    0.01730   0.82030   0.67388   Biso      1.000     N          -0.05335499999999999          
         N9        1.0000    0.69160   0.13700   0.97257   Biso      1.000     N          -0.039736           
         N10       1.0000    0.23620   0.69330   0.14254   Biso      1.000     N          -0.042277999999999996         
         N11       1.0000    0.51730   0.32030   0.82612   Biso      1.000     N          -0.053374           
         N12       1.0000    0.67340   0.48890   0.33391   Biso      1.000     N          -0.045329           
         N13       1.0000    0.94950   0.78800   0.71437   Biso      1.000     N          -0.09340599999999999          
         N14       1.0000    0.29590   0.87430   0.68499   Biso      1.000     N          -0.260671           
         N15       1.0000    0.81820   0.26030   0.85951   Biso      1.000     N          -0.045258           
         N16       1.0000    0.95550   0.24880   0.34236   Biso      1.000     N          -0.172536           
         N17       1.0000    0.79680   0.57760   0.28153   Biso      1.000     N          -0.25764899999999996          
         N18       1.0000    0.70320   0.92240   0.78153   Biso      1.000     N          -0.25764899999999996          
         N19       1.0000    0.20410   0.62570   0.18499   Biso      1.000     N          -0.260629           
         N20       1.0000    0.17090   0.58250   0.47585   Biso      1.000     N          -0.25463800000000003          
         N21       1.0000    0.08080   0.66230   0.47899   Biso      1.000     N          -0.254232           
         N22       1.0000    0.80840   0.36300   0.47257   Biso      1.000     N          -0.039739           
         N23       1.0000    0.20320   0.42240   0.71847   Biso      1.000     N          -0.257664           
         N24       1.0000    0.32660   0.51110   0.66609   Biso      1.000     N          -0.045366000000000004         
         N25       1.0000    0.32910   0.91750   0.97585   Biso      1.000     N          -0.25463800000000003          
         N26       1.0000    0.54450   0.25120   0.84236   Biso      1.000     N          -0.17252  
         N27       1.0000    0.74320   0.46040   0.34743   Biso      1.000     N          -0.178055           
         N28       1.0000    0.45550   0.74880   0.15764   Biso      1.000     N          -0.172536           
         N29       1.0000    0.30840   0.86300   0.02743   Biso      1.000     N          -0.039707           
         N30       1.0000    0.48270   0.67970   0.17388   Biso      1.000     N          -0.053359000000000004         
         N31       1.0000    0.91920   0.33770   0.52101   Biso      1.000     N          -0.254232           
         N32       1.0000    0.57140   0.80160   0.22649   Biso      1.000     N          -0.256358           
         N33       1.0000    0.42860   0.19840   0.77351   Biso      1.000     N          -0.256358           
         N34       1.0000    0.24320   0.96040   0.15257   Biso      1.000     N          -0.178051           
         N35       1.0000    0.63880   0.18430   0.97055   Biso      1.000     N          -0.051869000000000005         
         N36       1.0000    0.98270   0.17970   0.32612   Biso      1.000     N          -0.053359000000000004         
         N37       1.0000    0.19160   0.63700   0.52743   Biso      1.000     N          -0.039708           
         N38       1.0000    0.58080   0.16230   0.02101   Biso      1.000     N          -0.254206           
         N39       1.0000    0.86120   0.31570   0.47055   Biso      1.000     N          -0.05184  
         N40       1.0000    0.79590   0.37430   0.81501   Biso      1.000     N          -0.260671           
         N41       1.0000    0.82660   0.01110   0.83391   Biso      1.000     N          -0.045329           
         N42       1.0000    0.75680   0.03960   0.84743   Biso      1.000     N          -0.178055           
         N43       1.0000    0.67090   0.08250   0.02415   Biso      1.000     N          -0.25461  
         N44       1.0000    0.82910   0.41750   0.52415   Biso      1.000     N          -0.25461  
         N45       1.0000    0.73620   0.19330   0.35746   Biso      1.000     N          -0.042236           
         N46       1.0000    0.31820   0.76030   0.64049   Biso      1.000     N          -0.045231           
         N47       1.0000    0.29680   0.07760   0.21847   Biso      1.000     N          -0.257664           
         N48       1.0000    0.55050   0.71200   0.21437   Biso      1.000     N          -0.09337999999999999          
         N49       1.0000    0.26380   0.80670   0.64254   Biso      1.000     N          -0.042185           
         N50       1.0000    0.11200   0.70290   0.18172   Biso      1.000     N          -0.256046           
         N51       1.0000    0.07140   0.30160   0.27351   Biso      1.000     N          -0.256358           
         N52       1.0000    0.88800   0.29710   0.81828   Biso      1.000     N          -0.25601599999999997          
         N53       1.0000    0.05050   0.21200   0.28563   Biso      1.000     N          -0.09337899999999999          
         N54       1.0000    0.36120   0.81570   0.02945   Biso      1.000     N          -0.05184400000000001          
         N55       1.0000    0.61200   0.20290   0.31828   Biso      1.000     N          -0.256046           
         N56       1.0000    0.92860   0.69840   0.72649   Biso      1.000     N          -0.256334           
         N57       1.0000    0.76380   0.30670   0.85746   Biso      1.000     N          -0.042182           
         N58       1.0000    0.25680   0.53960   0.65257   Biso      1.000     N          -0.178051           
         N59       1.0000    0.68180   0.23970   0.35951   Biso      1.000     N          -0.045179000000000004         
         N60       1.0000    0.18180   0.73970   0.14049   Biso      1.000     N          -0.045174           
         N61       1.0000    0.29320   0.44130   0.70518   Biso      1.000     N          -0.100583           
         N62       1.0000    0.44950   0.28800   0.78563   Biso      1.000     N          -0.093376           
         N63       1.0000    0.13880   0.68430   0.52945   Biso      1.000     N          -0.051842           
         N64       1.0000    0.20680   0.05870   0.20518   Biso      1.000     N          -0.100583           
         Zn1       1.0000    0.29651   0.64395   0.58950   Biso      1.000     Zn          0.610051  
         Zn2       1.0000    0.64629   0.28787   0.90826   Biso      1.000     Zn          0.613363  
         Zn3       1.0000    0.87237   0.86347   0.75519   Biso      1.000     Zn          0.914911  
         Zn4       1.0000    0.37237   0.36347   0.74481   Biso      1.000     Zn          0.914904  
         Zn5       1.0000    0.70349   0.35605   0.41050   Biso      1.000     Zn          0.6100479999999999  
         Zn6       1.0000    0.14629   0.78787   0.59174   Biso      1.000     Zn          0.613362  
         Zn7       1.0000    0.12763   0.13653   0.24481   Biso      1.000     Zn          0.914904  
         Zn8       1.0000    0.85371   0.21213   0.40826   Biso      1.000     Zn          0.613368  
         Zn9       1.0000    0.35371   0.71213   0.09174   Biso      1.000     Zn          0.613372  
         Zn10      1.0000    0.20349   0.85605   0.08950   Biso      1.000     Zn          0.610045  
         Zn11      1.0000    0.62763   0.63653   0.25519   Biso      1.000     Zn          0.9149079999999999  
         Zn12      1.0000    0.79651   0.14395   0.91050   Biso      1.000     Zn          0.610056 