
##########################################################################
#               Crystallographic Information Format file
#               Produced by PyCifRW module
#
#  This is a CIF file.  CIF has been adopted by the International
#  Union of Crystallography as the standard for data archiving and
#  transmission.
#
#  For information on this file format, follow the CIF links at
#  http://www.iucr.org
##########################################################################

data_image0

_cell_length_a                          10.95
_cell_length_b                          17.7
_cell_length_c                          7.843
_cell_angle_alpha                       90
_cell_angle_beta                        102.33
_cell_angle_gamma                       90
_symmetry_space_group_name_H-M          'P 1'
_symmetry_int_tables_number             1
loop_
  _symmetry_equiv_pos_as_xyz
         'x, y, z' 
loop_
  _atom_site_label
  _atom_site_occupancy
  _atom_site_fract_x
  _atom_site_fract_y
  _atom_site_fract_z
  _atom_site_thermal_displace_type
  _atom_site_B_iso_or_equiv
  _atom_site_type_symbol
  _atom_site_charge
         C1        1.0000    0.35900   0.40000   0.09250   Biso      1.000     C          0.679318  
         C2        1.0000    0.32120   0.80770   0.46210   Biso      1.000     C          0.165376  
         C3        1.0000    0.37260   0.73760   0.50600   Biso      1.000     C          0.14946099999999998           
         C4        1.0000    0.64100   0.60000   0.90750   Biso      1.000     C          0.679318  
         C5        1.0000    0.82120   0.69230   0.96210   Biso      1.000     C          0.165376  
         C6        1.0000    0.87260   0.76240   0.00600   Biso      1.000     C          0.14946099999999998           
         C7        1.0000    0.14100   0.10000   0.90750   Biso      1.000     C          0.6793170000000001  
         C8        1.0000    0.19740   0.17680   0.95590   Biso      1.000     C          -0.212588           
         C9        1.0000    0.32120   0.19230   0.96210   Biso      1.000     C          0.165377  
         C10       1.0000    0.37260   0.26240   0.00600   Biso      1.000     C          0.14946099999999998           
         C11       1.0000    0.35900   0.60000   0.59250   Biso      1.000     C          0.679318  
         C12       1.0000    0.30260   0.67680   0.54410   Biso      1.000     C          -0.212589           
         C13       1.0000    0.17880   0.69230   0.53790   Biso      1.000     C          0.165377  
         C14       1.0000    0.12740   0.76240   0.49400   Biso      1.000     C          0.14946099999999998           
         C15       1.0000    0.85900   0.10000   0.59250   Biso      1.000     C          0.679318  
         C16       1.0000    0.80260   0.17680   0.54410   Biso      1.000     C          -0.212589           
         C17       1.0000    0.67880   0.19230   0.53790   Biso      1.000     C          0.165377  
         C18       1.0000    0.62740   0.26240   0.49400   Biso      1.000     C          0.14946099999999998           
         C19       1.0000    0.19740   0.82320   0.45590   Biso      1.000     C          -0.212588           
         C20       1.0000    0.14100   0.90000   0.40750   Biso      1.000     C          0.679318  
         C21       1.0000    0.69740   0.67680   0.95590   Biso      1.000     C          -0.212588           
         C22       1.0000    0.12740   0.23760   0.99400   Biso      1.000     C          0.14945799999999998           
         C23       1.0000    0.62740   0.73760   0.99400   Biso      1.000     C          0.14945799999999998           
         C24       1.0000    0.85900   0.90000   0.09250   Biso      1.000     C          0.6793170000000001  
         C25       1.0000    0.67880   0.80770   0.03790   Biso      1.000     C          0.165379  
         C26       1.0000    0.17880   0.30770   0.03790   Biso      1.000     C          0.165379  
         C27       1.0000    0.30260   0.32320   0.04410   Biso      1.000     C          -0.212589           
         C28       1.0000    0.80260   0.82320   0.04410   Biso      1.000     C          -0.212589           
         C29       1.0000    0.69740   0.32320   0.45590   Biso      1.000     C          -0.212589           
         C30       1.0000    0.82120   0.30770   0.46210   Biso      1.000     C          0.165377  
         C31       1.0000    0.87260   0.23760   0.50600   Biso      1.000     C          0.14946099999999998           
         C32       1.0000    0.64100   0.40000   0.40750   Biso      1.000     C          0.6793170000000001  
         Ca1       1.0000    0.50000   0.46783   0.75000   Biso      1.000     Ca          1.499622  
         Ca2       1.0000    0.50000   0.53217   0.25000   Biso      1.000     Ca          1.499623  
         Ca3       1.0000    0.00000   0.03217   0.25000   Biso      1.000     Ca          1.499622  
         Ca4       1.0000    0.00000   0.96783   0.75000   Biso      1.000     Ca          1.499623  
         F1        1.0000    0.50470   0.27176   0.48810   Biso      1.000     F          -0.116244           
         F2        1.0000    0.60480   0.13529   0.57120   Biso      1.000     F          -0.111937           
         F3        1.0000    0.10480   0.36471   0.07120   Biso      1.000     F          -0.111937           
         F4        1.0000    0.00470   0.77176   0.48810   Biso      1.000     F          -0.116244           
         F5        1.0000    0.10480   0.63529   0.57120   Biso      1.000     F          -0.111937           
         F6        1.0000    0.00470   0.22824   0.98810   Biso      1.000     F          -0.116244           
         F7        1.0000    0.49530   0.27176   0.01190   Biso      1.000     F          -0.116244           
         F8        1.0000    0.89520   0.36471   0.42880   Biso      1.000     F          -0.111937           
         F9        1.0000    0.99530   0.22824   0.51190   Biso      1.000     F          -0.116244           
         F10       1.0000    0.39520   0.13529   0.92880   Biso      1.000     F          -0.111937           
         F11       1.0000    0.39520   0.86471   0.42880   Biso      1.000     F          -0.111937           
         F12       1.0000    0.99530   0.77176   0.01190   Biso      1.000     F          -0.116244           
         F13       1.0000    0.89520   0.63529   0.92880   Biso      1.000     F          -0.111937           
         F14       1.0000    0.50470   0.72824   0.98810   Biso      1.000     F          -0.116244           
         F15       1.0000    0.49530   0.72824   0.51190   Biso      1.000     F          -0.116244           
         F16       1.0000    0.60480   0.86471   0.07120   Biso      1.000     F          -0.111937           
         O1        1.0000    0.64630   0.42601   0.26280   Biso      1.000     O          -0.588569           
         O2        1.0000    0.58840   0.43239   0.51560   Biso      1.000     O          -0.714627           
         O3        1.0000    0.91160   0.06761   0.48440   Biso      1.000     O          -0.714627           
         O4        1.0000    0.85370   0.07399   0.73720   Biso      1.000     O          -0.588569           
         O5        1.0000    0.14630   0.92601   0.26280   Biso      1.000     O          -0.588569           
         O6        1.0000    0.08840   0.93239   0.51560   Biso      1.000     O          -0.714627           
         O7        1.0000    0.58840   0.56761   0.01560   Biso      1.000     O          -0.714627           
         O8        1.0000    0.41160   0.56761   0.48440   Biso      1.000     O          -0.714627           
         O9        1.0000    0.35370   0.57399   0.73720   Biso      1.000     O          -0.588569           
         O10       1.0000    0.35370   0.42601   0.23720   Biso      1.000     O          -0.588569           
         O11       1.0000    0.41160   0.43239   0.98440   Biso      1.000     O          -0.714627           
         O12       1.0000    0.64630   0.57399   0.76280   Biso      1.000     O          -0.588569           
         O13       1.0000    0.08840   0.06761   0.01560   Biso      1.000     O          -0.714627           
         O14       1.0000    0.14630   0.07399   0.76280   Biso      1.000     O          -0.588569           
         O15       1.0000    0.91160   0.93239   0.98440   Biso      1.000     O          -0.714627           
         O16       1.0000    0.85370   0.92601   0.23720   Biso      1.000     O          -0.588569 