
##########################################################################
#               Crystallographic Information Format file
#               Produced by PyCifRW module
#
#  This is a CIF file.  CIF has been adopted by the International
#  Union of Crystallography as the standard for data archiving and
#  transmission.
#
#  For information on this file format, follow the CIF links at
#  http://www.iucr.org
##########################################################################

data_image0

_cell_length_a                          6.1983
_cell_length_b                          15.007
_cell_length_c                          16.5317
_cell_angle_alpha                       90
_cell_angle_beta                        90
_cell_angle_gamma                       90
_symmetry_space_group_name_H-M          'P 1'
_symmetry_int_tables_number             1
loop_
  _symmetry_equiv_pos_as_xyz
         'x, y, z' 
loop_
  _atom_site_label
  _atom_site_occupancy
  _atom_site_fract_x
  _atom_site_fract_y
  _atom_site_fract_z
  _atom_site_thermal_displace_type
  _atom_site_B_iso_or_equiv
  _atom_site_type_symbol
  _atom_site_charge
         C1        1.0000    0.89010   0.17870   0.47220   Biso      1.000     C          0.5844010000000001  
         C2        1.0000    0.56800   0.94290   0.72270   Biso      1.000     C          0.156109  
         C3        1.0000    0.06800   0.55710   0.27730   Biso      1.000     C          0.156109  
         C4        1.0000    0.93200   0.05710   0.22270   Biso      1.000     C          0.156109  
         C5        1.0000    0.35790   0.95010   0.75160   Biso      1.000     C          -0.21382800000000002          
         C6        1.0000    0.14210   0.04990   0.25160   Biso      1.000     C          -0.21382800000000002          
         C7        1.0000    0.43200   0.44290   0.77730   Biso      1.000     C          0.156109  
         C8        1.0000    0.86470   0.99470   0.16650   Biso      1.000     C          -0.22337800000000002          
         C9        1.0000    0.38160   0.57420   0.08740   Biso      1.000     C          0.019337  
         C10       1.0000    0.49660   0.07250   0.64170   Biso      1.000     C          0.071207  
         C11       1.0000    0.63530   0.00530   0.66650   Biso      1.000     C          -0.22337800000000002          
         C12       1.0000    0.66070   0.87950   0.89700   Biso      1.000     C          -0.063658           
         C13       1.0000    0.88160   0.92580   0.91260   Biso      1.000     C          0.019336000000000002          
         C14       1.0000    0.71810   0.86790   0.74870   Biso      1.000     C          -0.145521           
         C15       1.0000    0.00340   0.92750   0.14170   Biso      1.000     C          0.07120800000000001           
         C16       1.0000    0.64210   0.45010   0.74840   Biso      1.000     C          -0.21382800000000002          
         C17       1.0000    0.33930   0.37950   0.60300   Biso      1.000     C          -0.063658           
         C18       1.0000    0.36470   0.50530   0.83350   Biso      1.000     C          -0.22337800000000002          
         C19       1.0000    0.85790   0.54990   0.24840   Biso      1.000     C          -0.21382800000000002          
         C20       1.0000    0.78190   0.13210   0.24870   Biso      1.000     C          -0.145521           
         C21       1.0000    0.76840   0.52080   0.77530   Biso      1.000     C          0.058789999999999995          
         C22       1.0000    0.50340   0.57250   0.85830   Biso      1.000     C          0.07120800000000001           
         C23       1.0000    0.83930   0.12050   0.39700   Biso      1.000     C          -0.063658           
         C24       1.0000    0.60990   0.82130   0.97220   Biso      1.000     C          0.5844010000000001  
         C25       1.0000    0.16070   0.62050   0.10300   Biso      1.000     C          -0.063658           
         C26       1.0000    0.99660   0.42750   0.35830   Biso      1.000     C          0.071207  
         C27       1.0000    0.39010   0.32130   0.52780   Biso      1.000     C          0.5844010000000001  
         C28       1.0000    0.28190   0.36790   0.75130   Biso      1.000     C          -0.145521           
         C29       1.0000    0.23160   0.02080   0.72470   Biso      1.000     C          0.058790999999999996          
         C30       1.0000    0.61840   0.07420   0.41260   Biso      1.000     C          0.019336000000000002          
         C31       1.0000    0.10990   0.67870   0.02780   Biso      1.000     C          0.5844010000000001  
         C32       1.0000    0.21810   0.63210   0.25130   Biso      1.000     C          -0.145521           
         C33       1.0000    0.26840   0.97920   0.22470   Biso      1.000     C          0.058790999999999996          
         C34       1.0000    0.13530   0.49470   0.33350   Biso      1.000     C          -0.22337800000000002          
         C35       1.0000    0.11840   0.42580   0.58740   Biso      1.000     C          0.019336000000000002          
         C36       1.0000    0.73160   0.47920   0.27530   Biso      1.000     C          0.058790999999999996          
         Cd1       1.0000    0.59273   0.29166   0.35535   Biso      1.000     Cd          0.289549  
         Cd2       1.0000    0.40727   0.79166   0.14465   Biso      1.000     Cd          0.289549  
         Cd3       1.0000    0.90727   0.70834   0.85535   Biso      1.000     Cd          0.289549  
         Cd4       1.0000    0.09273   0.20834   0.64465   Biso      1.000     Cd          0.289549  
         H1        1.0000    0.04820   0.57520   0.10940   Biso      1.000     H          0.09033200000000001           
         H2        1.0000    0.77400   0.00210   0.64520   Biso      1.000     H          0.128674  
         H3        1.0000    0.96460   0.20130   0.31950   Biso      1.000     H          0.238502  
         H4        1.0000    0.21890   0.67680   0.29370   Biso      1.000     H          0.099973  
         H5        1.0000    0.59790   0.02670   0.37350   Biso      1.000     H          0.081954  
         H6        1.0000    0.69680   0.40860   0.71200   Biso      1.000     H          0.117754  
         H7        1.0000    0.54820   0.92480   0.89060   Biso      1.000     H          0.09033200000000001           
         H8        1.0000    0.53540   0.79870   0.81950   Biso      1.000     H          0.238502  
         H9        1.0000    0.90210   0.97330   0.87350   Biso      1.000     H          0.081954  
         H10       1.0000    0.38140   0.54780   0.03380   Biso      1.000     H          0.089891  
         H11       1.0000    0.11860   0.45220   0.53380   Biso      1.000     H          0.089891  
         H12       1.0000    0.40210   0.52670   0.12650   Biso      1.000     H          0.081954  
         H13       1.0000    0.04450   0.38710   0.39700   Biso      1.000     H          0.088577  
         H14       1.0000    0.09790   0.47330   0.62650   Biso      1.000     H          0.081954  
         H15       1.0000    0.41300   0.15600   0.45310   Biso      1.000     H          0.371297  
         H16       1.0000    0.59270   0.47390   0.25460   Biso      1.000     H          0.058624  
         H17       1.0000    0.09270   0.02610   0.74540   Biso      1.000     H          0.058624  
         H18       1.0000    0.46460   0.29870   0.68050   Biso      1.000     H          0.238502  
         H19       1.0000    0.63680   0.10810   0.25230   Biso      1.000     H          0.11155799999999999           
         H20       1.0000    0.80320   0.59140   0.21200   Biso      1.000     H          0.117754  
         H21       1.0000    0.13680   0.39190   0.74770   Biso      1.000     H          0.11155799999999999           
         H22       1.0000    0.88140   0.95220   0.96620   Biso      1.000     H          0.089891  
         H23       1.0000    0.71890   0.82320   0.70630   Biso      1.000     H          0.099972  
         H24       1.0000    0.78110   0.17680   0.20630   Biso      1.000     H          0.099972  
         H25       1.0000    0.28110   0.32320   0.79370   Biso      1.000     H          0.099972  
         H26       1.0000    0.95550   0.88710   0.10300   Biso      1.000     H          0.088577  
         H27       1.0000    0.22600   0.50210   0.85480   Biso      1.000     H          0.128674  
         H28       1.0000    0.45180   0.42480   0.60940   Biso      1.000     H          0.09033200000000001           
         H29       1.0000    0.54450   0.11290   0.60300   Biso      1.000     H          0.088577  
         H30       1.0000    0.36320   0.60810   0.24770   Biso      1.000     H          0.11155799999999999           
         H31       1.0000    0.61860   0.04780   0.46620   Biso      1.000     H          0.089891  
         H32       1.0000    0.86320   0.89190   0.75230   Biso      1.000     H          0.11155799999999999           
         H33       1.0000    0.90730   0.52610   0.75460   Biso      1.000     H          0.058624  
         H34       1.0000    0.45550   0.61290   0.89700   Biso      1.000     H          0.088577  
         H35       1.0000    0.58700   0.65600   0.04690   Biso      1.000     H          0.371297  
         H36       1.0000    0.91300   0.34400   0.54690   Biso      1.000     H          0.371297  
         H37       1.0000    0.95180   0.07520   0.39060   Biso      1.000     H          0.09033300000000001           
         H38       1.0000    0.03540   0.70130   0.18050   Biso      1.000     H          0.238502  
         H39       1.0000    0.08700   0.84400   0.95310   Biso      1.000     H          0.371297  
         H40       1.0000    0.30320   0.90860   0.78800   Biso      1.000     H          0.117754  
         H41       1.0000    0.19680   0.09140   0.28800   Biso      1.000     H          0.117754  
         H42       1.0000    0.27400   0.49790   0.35480   Biso      1.000     H          0.128674  
         H43       1.0000    0.40730   0.97390   0.24540   Biso      1.000     H          0.058624  
         H44       1.0000    0.72600   0.99790   0.14520   Biso      1.000     H          0.128674  
         N1        1.0000    0.20200   0.91840   0.17100   Biso      1.000     N          -0.182103           
         N2        1.0000    0.83170   0.17630   0.32510   Biso      1.000     N          -0.294962           
         N3        1.0000    0.16830   0.67630   0.17490   Biso      1.000     N          -0.294962           
         N4        1.0000    0.33170   0.32370   0.67490   Biso      1.000     N          -0.294962           
         N5        1.0000    0.66830   0.82370   0.82510   Biso      1.000     N          -0.294962           
         N6        1.0000    0.70200   0.58160   0.82900   Biso      1.000     N          -0.182103           
         N7        1.0000    0.79800   0.41840   0.32900   Biso      1.000     N          -0.182103           
         N8        1.0000    0.29800   0.08160   0.67100   Biso      1.000     N          -0.182103           
         O1        1.0000    0.94620   0.36420   0.59350   Biso      1.000     O          -0.49959899999999996          
         O2        1.0000    0.13980   0.76050   0.03470   Biso      1.000     O          -0.514125           
         O3        1.0000    0.05380   0.86420   0.90650   Biso      1.000     O          -0.49959899999999996          
         O4        1.0000    0.44980   0.36110   0.46530   Biso      1.000     O          -0.519356           
         O5        1.0000    0.44620   0.13580   0.40650   Biso      1.000     O          -0.49959899999999996          
         O6        1.0000    0.63980   0.73950   0.96530   Biso      1.000     O          -0.514125           
         O7        1.0000    0.55020   0.86110   0.03470   Biso      1.000     O          -0.519356           
         O8        1.0000    0.55380   0.63580   0.09350   Biso      1.000     O          -0.49959899999999996          
         O9        1.0000    0.36020   0.23950   0.53470   Biso      1.000     O          -0.514125           
         O10       1.0000    0.94980   0.13890   0.53470   Biso      1.000     O          -0.519356           
         O11       1.0000    0.05020   0.63890   0.96530   Biso      1.000     O          -0.519356           
         O12       1.0000    0.86020   0.26050   0.46530   Biso      1.000     O          -0.514125 