
##########################################################################
#               Crystallographic Information Format file
#               Produced by PyCifRW module
#
#  This is a CIF file.  CIF has been adopted by the International
#  Union of Crystallography as the standard for data archiving and
#  transmission.
#
#  For information on this file format, follow the CIF links at
#  http://www.iucr.org
##########################################################################

data_image0

_cell_length_a                          14.174
_cell_length_b                          15.4556
_cell_length_c                          15.4556
_cell_angle_alpha                       68.9104
_cell_angle_beta                        72.2001
_cell_angle_gamma                       107.8
_symmetry_space_group_name_H-M          'P 1'
_symmetry_int_tables_number             1
loop_
  _symmetry_equiv_pos_as_xyz
         'x, y, z' 
loop_
  _atom_site_label
  _atom_site_occupancy
  _atom_site_fract_x
  _atom_site_fract_y
  _atom_site_fract_z
  _atom_site_thermal_displace_type
  _atom_site_B_iso_or_equiv
  _atom_site_type_symbol
  _atom_site_charge
         C1        1.0000    0.63400   0.18000   0.36500   Biso      1.000     C          -0.100239           
         C2        1.0000    0.79600   0.31550   0.21010   Biso      1.000     C          0.093907  
         C3        1.0000    0.35900   0.43600   0.14600   Biso      1.000     C          -0.206521           
         C4        1.0000    0.51950   0.52560   0.68450   Biso      1.000     C          0.095289  
         C5        1.0000    0.44000   0.20400   0.43700   Biso      1.000     C          -0.091517           
         C6        1.0000    0.64100   0.56400   0.85400   Biso      1.000     C          -0.206521           
         C7        1.0000    0.00100   0.63500   0.54500   Biso      1.000     C          -0.100337           
         C8        1.0000    0.11100   0.52000   0.12800   Biso      1.000     C          0.092774  
         C9        1.0000    0.11500   0.38500   0.11000   Biso      1.000     C          0.024973  
         C10       1.0000    0.12300   0.56300   0.64100   Biso      1.000     C          -0.091215           
         C11       1.0000    0.50500   0.14600   0.41800   Biso      1.000     C          -0.208473           
         C12       1.0000    0.99390   0.78990   0.52560   Biso      1.000     C          0.093722  
         C13       1.0000    0.40900   0.64800   0.48000   Biso      1.000     C          0.091657  
         C14       1.0000    0.22500   0.11000   0.50500   Biso      1.000     C          0.022928  
         C15       1.0000    0.00610   0.21010   0.47440   Biso      1.000     C          0.093722  
         C16       1.0000    0.88900   0.48000   0.87200   Biso      1.000     C          0.092775  
         C17       1.0000    0.92300   0.41800   0.43600   Biso      1.000     C          -0.208285           
         C18       1.0000    0.76800   0.44380   0.15600   Biso      1.000     C          0.064924  
         C19       1.0000    0.56000   0.79600   0.56300   Biso      1.000     C          -0.09151799999999999          
         C20       1.0000    0.07700   0.58200   0.56400   Biso      1.000     C          -0.208285           
         C21       1.0000    0.23900   0.12800   0.35200   Biso      1.000     C          0.09316100000000001           
         C22       1.0000    0.36600   0.82000   0.63500   Biso      1.000     C          -0.100239           
         C23       1.0000    0.54600   0.54500   0.82000   Biso      1.000     C          -0.100766           
         C24       1.0000    0.48050   0.47440   0.31550   Biso      1.000     C          0.095288  
         C25       1.0000    0.59100   0.35200   0.52000   Biso      1.000     C          0.091657  
         C26       1.0000    0.07600   0.84400   0.59980   Biso      1.000     C          0.068735  
         C27       1.0000    0.67580   0.59980   0.55620   Biso      1.000     C          0.066813  
         C28       1.0000    0.77500   0.89000   0.49500   Biso      1.000     C          0.022927  
         C29       1.0000    0.99900   0.36500   0.45500   Biso      1.000     C          -0.100337           
         C30       1.0000    0.49500   0.85400   0.58200   Biso      1.000     C          -0.208473           
         C31       1.0000    0.27000   0.49500   0.61500   Biso      1.000     C          0.0248    
         C32       1.0000    0.23200   0.55620   0.84400   Biso      1.000     C          0.064924  
         C33       1.0000    0.76100   0.87200   0.64800   Biso      1.000     C          0.093159  
         C34       1.0000    0.73000   0.50500   0.38500   Biso      1.000     C          0.024801  
         C35       1.0000    0.23600   0.35900   0.20400   Biso      1.000     C          -0.094444           
         C36       1.0000    0.76400   0.64100   0.79600   Biso      1.000     C          -0.094444           
         C37       1.0000    0.32420   0.40020   0.44380   Biso      1.000     C          0.066814  
         C38       1.0000    0.20400   0.68450   0.78990   Biso      1.000     C          0.093907  
         C39       1.0000    0.88500   0.61500   0.89000   Biso      1.000     C          0.024973  
         C40       1.0000    0.45400   0.45500   0.18000   Biso      1.000     C          -0.100768           
         C41       1.0000    0.87700   0.43700   0.35900   Biso      1.000     C          -0.091215           
         C42       1.0000    0.92400   0.15600   0.40020   Biso      1.000     C          0.068736  
         Cu1       1.0000    0.00000   0.00000   0.50000   Biso      1.000     Cu          0.31438699999999997           
         Cu2       1.0000    0.50000   0.50000   0.50000   Biso      1.000     Cu          0.315558  
         Cu3       1.0000    0.00000   0.50000   0.00000   Biso      1.000     Cu          0.31538299999999997           
         H1        1.0000    0.38880   0.42600   0.08680   Biso      1.000     H          0.096945  
         H2        1.0000    0.93080   0.50650   0.29560   Biso      1.000     H          0.088813  
         H3        1.0000    0.79320   0.66420   0.72170   Biso      1.000     H          0.09602100000000001           
         H4        1.0000    0.51490   0.72170   0.61410   Biso      1.000     H          0.09522699999999999           
         H5        1.0000    0.77360   0.70440   0.80210   Biso      1.000     H          0.08876   
         H6        1.0000    0.05330   0.22330   0.50380   Biso      1.000     H          0.07871399999999999           
         H7        1.0000    0.26680   0.37980   0.50770   Biso      1.000     H          0.077637  
         H8        1.0000    0.20680   0.33580   0.27830   Biso      1.000     H          0.09602100000000001           
         H9        1.0000    0.63990   0.49690   0.88290   Biso      1.000     H          0.10186100000000001           
         H10       1.0000    0.52230   0.30030   0.57510   Biso      1.000     H          0.087326  
         H11       1.0000    0.48510   0.27830   0.38590   Biso      1.000     H          0.09522699999999999           
         H12       1.0000    0.57570   0.80210   0.49350   Biso      1.000     H          0.089089  
         H13       1.0000    0.83000   0.27290   0.22330   Biso      1.000     H          0.077559  
         H14       1.0000    0.19450   0.09040   0.57720   Biso      1.000     H          0.018293  
         H15       1.0000    0.33760   0.82050   0.58480   Biso      1.000     H          0.10385599999999999           
         H16       1.0000    0.80550   0.90960   0.42280   Biso      1.000     H          0.018294  
         H17       1.0000    0.47720   0.11710   0.37980   Biso      1.000     H          0.101906  
         H18       1.0000    0.52280   0.88290   0.62020   Biso      1.000     H          0.10190700000000001           
         H19       1.0000    0.44290   0.49620   0.72710   Biso      1.000     H          0.07791100000000001           
         H20       1.0000    0.89590   0.66760   0.90960   Biso      1.000     H          0.016663999999999998          
         H21       1.0000    0.64620   0.13110   0.34400   Biso      1.000     H          0.10088   
         H22       1.0000    0.99020   0.34400   0.52490   Biso      1.000     H          0.10101399999999999           
         H23       1.0000    0.22200   0.12460   0.30030   Biso      1.000     H          0.08531699999999999           
         H24       1.0000    0.07760   0.41520   0.40530   Biso      1.000     H          0.104246  
         H25       1.0000    0.55710   0.50380   0.27290   Biso      1.000     H          0.07791100000000001           
         H26       1.0000    0.48490   0.47510   0.86890   Biso      1.000     H          0.101615  
         H27       1.0000    0.92240   0.58480   0.59470   Biso      1.000     H          0.104246  
         H28       1.0000    0.03720   0.51280   0.57400   Biso      1.000     H          0.097694  
         H29       1.0000    0.17000   0.72710   0.77670   Biso      1.000     H          0.077559  
         H30       1.0000    0.09740   0.57510   0.12460   Biso      1.000     H          0.08668200000000001           
         H31       1.0000    0.14300   0.62020   0.49690   Biso      1.000     H          0.101863  
         H32       1.0000    0.51710   0.59470   0.82050   Biso      1.000     H          0.103244  
         H33       1.0000    0.51510   0.52490   0.13110   Biso      1.000     H          0.101617  
         H34       1.0000    0.06920   0.49350   0.70440   Biso      1.000     H          0.088813  
         H35       1.0000    0.22830   0.42280   0.66760   Biso      1.000     H          0.017965000000000002          
         H36       1.0000    0.36010   0.50310   0.11710   Biso      1.000     H          0.10186100000000001           
         H37       1.0000    0.87100   0.38590   0.33580   Biso      1.000     H          0.095201  
         H38       1.0000    0.85700   0.37980   0.50310   Biso      1.000     H          0.101863  
         H39       1.0000    0.12900   0.61410   0.66420   Biso      1.000     H          0.095201  
         H40       1.0000    0.48290   0.40530   0.17950   Biso      1.000     H          0.103245  
         H41       1.0000    0.88700   0.11250   0.37980   Biso      1.000     H          0.077266  
         H42       1.0000    0.96280   0.48720   0.42600   Biso      1.000     H          0.097694  
         H43       1.0000    0.47560   0.08680   0.48720   Biso      1.000     H          0.097523  
         H44       1.0000    0.61120   0.57400   0.91320   Biso      1.000     H          0.096944  
         H45       1.0000    0.47770   0.69970   0.42490   Biso      1.000     H          0.087326  
         H46       1.0000    0.77800   0.87540   0.69970   Biso      1.000     H          0.08532200000000001           
         H47       1.0000    0.22640   0.29560   0.19790   Biso      1.000     H          0.088758  
         H48       1.0000    0.42430   0.19790   0.50650   Biso      1.000     H          0.089087  
         H49       1.0000    0.00980   0.65600   0.47510   Biso      1.000     H          0.10101399999999999           
         H50       1.0000    0.77450   0.50770   0.11250   Biso      1.000     H          0.07829   
         H51       1.0000    0.94670   0.77670   0.49620   Biso      1.000     H          0.078712  
         H52       1.0000    0.90260   0.42490   0.87540   Biso      1.000     H          0.08667899999999999           
         H53       1.0000    0.22550   0.49230   0.88750   Biso      1.000     H          0.078291  
         H54       1.0000    0.52440   0.91320   0.51280   Biso      1.000     H          0.097522  
         H55       1.0000    0.66240   0.17950   0.41520   Biso      1.000     H          0.10385599999999999           
         H56       1.0000    0.10410   0.33240   0.09040   Biso      1.000     H          0.016665  
         H57       1.0000    0.11300   0.88750   0.62020   Biso      1.000     H          0.077265  
         H58       1.0000    0.73320   0.62020   0.49230   Biso      1.000     H          0.077637  
         H59       1.0000    0.35380   0.86890   0.65600   Biso      1.000     H          0.10088   
         H60       1.0000    0.77170   0.57720   0.33240   Biso      1.000     H          0.017962  
         N1        1.0000    0.93700   0.25400   0.37100   Biso      1.000     N          -0.25369200000000003          
         N2        1.0000    0.66300   0.83500   0.56600   Biso      1.000     N          0.144792  
         N3        1.0000    0.31500   0.66000   0.51600   Biso      1.000     N          -0.326506           
         N4        1.0000    0.69840   0.28890   0.27050   Biso      1.000     N          0.149009  
         N5        1.0000    0.07770   0.45780   0.08620   Biso      1.000     N          -0.290624           
         N6        1.0000    0.65500   0.82400   0.66000   Biso      1.000     N          -0.326918           
         N7        1.0000    0.30800   0.37100   0.37500   Biso      1.000     N          -0.252822           
         N8        1.0000    0.33700   0.16500   0.43400   Biso      1.000     N          0.144792  
         N9        1.0000    0.92230   0.54220   0.91380   Biso      1.000     N          -0.290624           
         N10       1.0000    0.34500   0.17600   0.34000   Biso      1.000     N          -0.326918           
         N11       1.0000    0.06300   0.74600   0.62900   Biso      1.000     N          -0.25369200000000003          
         N12       1.0000    0.22900   0.56600   0.59900   Biso      1.000     N          0.14502400000000001           
         N13       1.0000    0.82800   0.59900   0.83500   Biso      1.000     N          0.146498  
         N14       1.0000    0.43970   0.46570   0.40700   Biso      1.000     N          -0.30830100000000005          
         N15       1.0000    0.38010   0.54400   0.54220   Biso      1.000     N          -0.290878           
         N16       1.0000    0.30160   0.71110   0.72950   Biso      1.000     N          0.149009  
         N17       1.0000    0.96890   0.27050   0.44060   Biso      1.000     N          0.149067  
         N18       1.0000    0.56030   0.53430   0.59300   Biso      1.000     N          -0.30830100000000005          
         N19       1.0000    0.02600   0.87270   0.53430   Biso      1.000     N          -0.308735           
         N20       1.0000    0.31700   0.62500   0.74600   Biso      1.000     N          -0.252218           
         N21       1.0000    0.83100   0.51600   0.82400   Biso      1.000     N          -0.327338           
         N22       1.0000    0.16900   0.48400   0.17600   Biso      1.000     N          -0.327347           
         N23       1.0000    0.68500   0.34000   0.48400   Biso      1.000     N          -0.326506           
         N24       1.0000    0.84670   0.40700   0.12730   Biso      1.000     N          -0.306634           
         N25       1.0000    0.59050   0.55940   0.71110   Biso      1.000     N          0.14891500000000002           
         N26       1.0000    0.77100   0.43400   0.40100   Biso      1.000     N          0.145025  
         N27       1.0000    0.03110   0.72950   0.55940   Biso      1.000     N          0.149067  
         N28       1.0000    0.97400   0.12730   0.46570   Biso      1.000     N          -0.308735           
         N29       1.0000    0.40950   0.44060   0.28890   Biso      1.000     N          0.148924  
         N30       1.0000    0.68300   0.37500   0.25400   Biso      1.000     N          -0.252217           
         N31       1.0000    0.17200   0.40100   0.16500   Biso      1.000     N          0.146506  
         N32       1.0000    0.83610   0.91380   0.54400   Biso      1.000     N          -0.288578           
         N33       1.0000    0.16390   0.08620   0.45600   Biso      1.000     N          -0.288578           
         N34       1.0000    0.61990   0.45600   0.45780   Biso      1.000     N          -0.290878           
         N35       1.0000    0.69200   0.62900   0.62500   Biso      1.000     N          -0.252813           
         N36       1.0000    0.15330   0.59300   0.87270   Biso      1.000     N          -0.306634 