
##########################################################################
#               Crystallographic Information Format file
#               Produced by PyCifRW module
#
#  This is a CIF file.  CIF has been adopted by the International
#  Union of Crystallography as the standard for data archiving and
#  transmission.
#
#  For information on this file format, follow the CIF links at
#  http://www.iucr.org
##########################################################################

data_image0

_cell_length_a                          16.0685
_cell_length_b                          14.6258
_cell_length_c                          9.3457
_cell_angle_alpha                       90
_cell_angle_beta                        117.798
_cell_angle_gamma                       90
_symmetry_space_group_name_H-M          'P 1'
_symmetry_int_tables_number             1
loop_
  _symmetry_equiv_pos_as_xyz
         'x, y, z' 
loop_
  _atom_site_label
  _atom_site_occupancy
  _atom_site_fract_x
  _atom_site_fract_y
  _atom_site_fract_z
  _atom_site_thermal_displace_type
  _atom_site_B_iso_or_equiv
  _atom_site_type_symbol
  _atom_site_charge
         C1        1.0000    0.33270   0.60330   0.02890   Biso      1.000     C          -0.126033           
         C2        1.0000    0.73850   0.44740   0.09030   Biso      1.000     C          -0.099969           
         C3        1.0000    0.66730   0.39670   0.97110   Biso      1.000     C          -0.126032           
         C4        1.0000    0.64140   0.31190   0.00560   Biso      1.000     C          0.050185  
         C5        1.0000    0.43410   0.74130   0.12710   Biso      1.000     C          0.172485  
         C6        1.0000    0.68800   0.27960   0.16440   Biso      1.000     C          -0.143037           
         C7        1.0000    0.75830   0.33150   0.28450   Biso      1.000     C          -0.102815           
         C8        1.0000    0.78440   0.41560   0.24810   Biso      1.000     C          -0.039005           
         C9        1.0000    0.86590   0.46890   0.37580   Biso      1.000     C          0.653907  
         C10       1.0000    0.63410   0.03110   0.62420   Biso      1.000     C          0.653907  
         C11       1.0000    0.71560   0.08440   0.75190   Biso      1.000     C          -0.039006           
         C12       1.0000    0.74170   0.16850   0.71550   Biso      1.000     C          -0.102815           
         C13       1.0000    0.06410   0.66370   0.87360   Biso      1.000     C          -0.008303           
         C14       1.0000    0.06590   0.75870   0.87290   Biso      1.000     C          0.172486  
         C15       1.0000    0.23850   0.94740   0.09030   Biso      1.000     C          -0.099969           
         C16       1.0000    0.78440   0.58440   0.74810   Biso      1.000     C          -0.039006           
         C17       1.0000    0.35860   0.68810   0.99440   Biso      1.000     C          0.050185  
         C18       1.0000    0.56590   0.25870   0.87290   Biso      1.000     C          0.172485  
         C19       1.0000    0.56410   0.16370   0.87360   Biso      1.000     C          -0.008303           
         C20       1.0000    0.56410   0.83630   0.37360   Biso      1.000     C          -0.008303           
         C21       1.0000    0.86590   0.53110   0.87580   Biso      1.000     C          0.653907  
         C22       1.0000    0.43590   0.83630   0.12640   Biso      1.000     C          -0.008303           
         C23       1.0000    0.68800   0.72040   0.66440   Biso      1.000     C          -0.143036           
         C24       1.0000    0.06410   0.33630   0.37360   Biso      1.000     C          -0.008303           
         C25       1.0000    0.06590   0.24130   0.37290   Biso      1.000     C          0.172486  
         C26       1.0000    0.64140   0.68810   0.50560   Biso      1.000     C          0.050184  
         C27       1.0000    0.23850   0.05260   0.59030   Biso      1.000     C          -0.099969           
         C28       1.0000    0.16730   0.89670   0.97110   Biso      1.000     C          -0.126032           
         C29       1.0000    0.66730   0.60330   0.47110   Biso      1.000     C          -0.126032           
         C30       1.0000    0.14140   0.18810   0.50560   Biso      1.000     C          0.050184  
         C31       1.0000    0.18800   0.22040   0.66440   Biso      1.000     C          -0.143037           
         C32       1.0000    0.73850   0.55260   0.59030   Biso      1.000     C          -0.099968           
         C33       1.0000    0.25830   0.16850   0.78450   Biso      1.000     C          -0.102815           
         C34       1.0000    0.28440   0.08440   0.74810   Biso      1.000     C          -0.039005           
         C35       1.0000    0.36590   0.03110   0.87580   Biso      1.000     C          0.653907  
         C36       1.0000    0.56590   0.74130   0.37290   Biso      1.000     C          0.172486  
         C37       1.0000    0.16730   0.10330   0.47110   Biso      1.000     C          -0.126031           
         C38       1.0000    0.14140   0.81190   0.00560   Biso      1.000     C          0.050185  
         C39       1.0000    0.81200   0.22040   0.83560   Biso      1.000     C          -0.143037           
         C40       1.0000    0.21560   0.41560   0.25190   Biso      1.000     C          -0.039006           
         C41       1.0000    0.13410   0.46890   0.12420   Biso      1.000     C          0.653907  
         C42       1.0000    0.26150   0.55260   0.90970   Biso      1.000     C          -0.099968           
         C43       1.0000    0.13410   0.53110   0.62420   Biso      1.000     C          0.653907  
         C44       1.0000    0.93590   0.66370   0.62640   Biso      1.000     C          -0.008303           
         C45       1.0000    0.93410   0.75870   0.62710   Biso      1.000     C          0.172486  
         C46       1.0000    0.21560   0.58440   0.75190   Biso      1.000     C          -0.039005           
         C47       1.0000    0.76150   0.94740   0.40970   Biso      1.000     C          -0.099969           
         C48       1.0000    0.24170   0.66850   0.71550   Biso      1.000     C          -0.102815           
         C49       1.0000    0.83270   0.89670   0.52890   Biso      1.000     C          -0.126032           
         C50       1.0000    0.85860   0.81190   0.49440   Biso      1.000     C          0.050185  
         C51       1.0000    0.81200   0.77960   0.33560   Biso      1.000     C          -0.143037           
         C52       1.0000    0.31200   0.72040   0.83560   Biso      1.000     C          -0.143037           
         C53       1.0000    0.74170   0.83150   0.21550   Biso      1.000     C          -0.102815           
         C54       1.0000    0.71560   0.91560   0.25190   Biso      1.000     C          -0.039005           
         C55       1.0000    0.63410   0.96890   0.12420   Biso      1.000     C          0.653907  
         C56       1.0000    0.18800   0.77960   0.16440   Biso      1.000     C          -0.143037           
         C57       1.0000    0.24170   0.33150   0.21550   Biso      1.000     C          -0.102815           
         C58       1.0000    0.75830   0.66850   0.78450   Biso      1.000     C          -0.102815           
         C59       1.0000    0.93410   0.24130   0.12710   Biso      1.000     C          0.172486  
         C60       1.0000    0.36590   0.96890   0.37580   Biso      1.000     C          0.653907  
         C61       1.0000    0.93590   0.33630   0.12640   Biso      1.000     C          -0.008303           
         C62       1.0000    0.35860   0.31190   0.49440   Biso      1.000     C          0.050184  
         C63       1.0000    0.33270   0.39670   0.52890   Biso      1.000     C          -0.126032           
         C64       1.0000    0.85860   0.18810   0.99440   Biso      1.000     C          0.050184  
         C65       1.0000    0.25830   0.83150   0.28450   Biso      1.000     C          -0.102815           
         C66       1.0000    0.76150   0.05260   0.90970   Biso      1.000     C          -0.099968           
         C67       1.0000    0.83270   0.10330   0.02890   Biso      1.000     C          -0.126031           
         C68       1.0000    0.26150   0.44740   0.40970   Biso      1.000     C          -0.099968           
         C69       1.0000    0.28440   0.91560   0.24810   Biso      1.000     C          -0.039005           
         C70       1.0000    0.43410   0.25870   0.62710   Biso      1.000     C          0.172486  
         C71       1.0000    0.43590   0.16370   0.62640   Biso      1.000     C          -0.008303           
         C72       1.0000    0.31200   0.27960   0.33560   Biso      1.000     C          -0.143037           
         H1        1.0000    0.60910   0.86740   0.46310   Biso      1.000     H          0.105507  
         H2        1.0000    0.32810   0.77700   0.81010   Biso      1.000     H          0.118422  
         H3        1.0000    0.67190   0.77700   0.68990   Biso      1.000     H          0.118422  
         H4        1.0000    0.71180   0.19010   0.60980   Biso      1.000     H          0.116138  
         H5        1.0000    0.63610   0.58040   0.36630   Biso      1.000     H          0.117205  
         H6        1.0000    0.86390   0.08040   0.13370   Biso      1.000     H          0.117205  
         H7        1.0000    0.74420   0.99670   0.93560   Biso      1.000     H          0.120028  
         H8        1.0000    0.75580   0.49670   0.56440   Biso      1.000     H          0.120028  
         H9        1.0000    0.36390   0.58040   0.13370   Biso      1.000     H          0.117206  
         H10       1.0000    0.24420   0.49670   0.93560   Biso      1.000     H          0.120028  
         H11       1.0000    0.89090   0.36740   0.03690   Biso      1.000     H          0.105507  
         H12       1.0000    0.21180   0.69010   0.60980   Biso      1.000     H          0.116138  
         H13       1.0000    0.82810   0.27700   0.81010   Biso      1.000     H          0.118422  
         H14       1.0000    0.28820   0.19010   0.89020   Biso      1.000     H          0.116138  
         H15       1.0000    0.39090   0.86740   0.03690   Biso      1.000     H          0.105507  
         H16       1.0000    0.71180   0.80990   0.10980   Biso      1.000     H          0.116138  
         H17       1.0000    0.82810   0.72300   0.31010   Biso      1.000     H          0.118422  
         H18       1.0000    0.86390   0.91960   0.63370   Biso      1.000     H          0.117205  
         H19       1.0000    0.74420   0.00330   0.43560   Biso      1.000     H          0.120028  
         H20       1.0000    0.89090   0.63260   0.53690   Biso      1.000     H          0.105507  
         H21       1.0000    0.21180   0.30990   0.10980   Biso      1.000     H          0.116138  
         H22       1.0000    0.32810   0.22300   0.31010   Biso      1.000     H          0.118422  
         H23       1.0000    0.36390   0.41960   0.63370   Biso      1.000     H          0.117205  
         H24       1.0000    0.24420   0.50330   0.43560   Biso      1.000     H          0.120028  
         H25       1.0000    0.39090   0.13260   0.53690   Biso      1.000     H          0.105507  
         H26       1.0000    0.28820   0.80990   0.39020   Biso      1.000     H          0.116138  
         H27       1.0000    0.78820   0.69010   0.89020   Biso      1.000     H          0.116138  
         H28       1.0000    0.13610   0.91960   0.86630   Biso      1.000     H          0.117206  
         H29       1.0000    0.25580   0.00330   0.06440   Biso      1.000     H          0.120028  
         H30       1.0000    0.17190   0.72300   0.18990   Biso      1.000     H          0.118422  
         H31       1.0000    0.75580   0.50330   0.06440   Biso      1.000     H          0.120028  
         H32       1.0000    0.10910   0.36740   0.46310   Biso      1.000     H          0.105507  
         H33       1.0000    0.78820   0.30990   0.39020   Biso      1.000     H          0.116138  
         H34       1.0000    0.25580   0.99670   0.56440   Biso      1.000     H          0.120028  
         H35       1.0000    0.13610   0.08040   0.36630   Biso      1.000     H          0.117206  
         H36       1.0000    0.67190   0.22300   0.18990   Biso      1.000     H          0.118422  
         H37       1.0000    0.63610   0.41960   0.86630   Biso      1.000     H          0.117206  
         H38       1.0000    0.60910   0.13260   0.96310   Biso      1.000     H          0.105507  
         H39       1.0000    0.17190   0.27700   0.68990   Biso      1.000     H          0.118422  
         H40       1.0000    0.10910   0.63260   0.96310   Biso      1.000     H          0.105507  
         Mg1       1.0000    0.50000   0.95728   0.75000   Biso      1.000     Mg          1.413506  
         Mg2       1.0000    0.00000   0.45728   0.75000   Biso      1.000     Mg          1.413506  
         Mg3       1.0000    0.50000   0.04272   0.25000   Biso      1.000     Mg          1.413506  
         Mg4       1.0000    0.00000   0.54272   0.25000   Biso      1.000     Mg          1.413506  
         N1        1.0000    0.50000   0.11580   0.75000   Biso      1.000     N          -0.265698           
         N2        1.0000    0.50000   0.30620   0.75000   Biso      1.000     N          -0.299733           
         N3        1.0000    0.00000   0.61580   0.75000   Biso      1.000     N          -0.265698           
         N4        1.0000    0.00000   0.38420   0.25000   Biso      1.000     N          -0.265698           
         N5        1.0000    0.00000   0.19380   0.25000   Biso      1.000     N          -0.299733           
         N6        1.0000    0.00000   0.80620   0.75000   Biso      1.000     N          -0.299733           
         N7        1.0000    0.50000   0.88420   0.25000   Biso      1.000     N          -0.265698           
         N8        1.0000    0.50000   0.69380   0.25000   Biso      1.000     N          -0.299733           
         O1        1.0000    0.10729   0.55318   0.48070   Biso      1.000     O          -0.670082           
         O2        1.0000    0.60016   0.03281   0.17100   Biso      1.000     O          -0.688673           
         O3        1.0000    0.10729   0.44682   0.98070   Biso      1.000     O          -0.670082           
         O4        1.0000    0.10016   0.53281   0.17100   Biso      1.000     O          -0.688673           
         O5        1.0000    0.39271   0.94682   0.51930   Biso      1.000     O          -0.670082           
         O6        1.0000    0.39984   0.03281   0.32900   Biso      1.000     O          -0.688673           
         O7        1.0000    0.89271   0.44682   0.51930   Biso      1.000     O          -0.670082           
         O8        1.0000    0.89984   0.53281   0.32900   Biso      1.000     O          -0.688673           
         O9        1.0000    0.39271   0.05318   0.01930   Biso      1.000     O          -0.670082           
         O10       1.0000    0.39984   0.96719   0.82900   Biso      1.000     O          -0.688673           
         O11       1.0000    0.89271   0.55318   0.01930   Biso      1.000     O          -0.670082           
         O12       1.0000    0.89984   0.46719   0.82900   Biso      1.000     O          -0.688673           
         O13       1.0000    0.60729   0.05318   0.48070   Biso      1.000     O          -0.670082           
         O14       1.0000    0.60016   0.96719   0.67100   Biso      1.000     O          -0.688673           
         O15       1.0000    0.10016   0.46719   0.67100   Biso      1.000     O          -0.688673           
         O16       1.0000    0.60729   0.94682   0.98070   Biso      1.000     O          -0.670082 