
##########################################################################
#               Crystallographic Information Format file
#               Produced by PyCifRW module
#
#  This is a CIF file.  CIF has been adopted by the International
#  Union of Crystallography as the standard for data archiving and
#  transmission.
#
#  For information on this file format, follow the CIF links at
#  http://www.iucr.org
##########################################################################

data_image0

_cell_length_a                          7.9896
_cell_length_b                          10.0831
_cell_length_c                          15.0367
_cell_angle_alpha                       79.4624
_cell_angle_beta                        74.5933
_cell_angle_gamma                       66.66
_symmetry_space_group_name_H-M          'P 1'
_symmetry_int_tables_number             1
loop_
  _symmetry_equiv_pos_as_xyz
         'x, y, z' 
loop_
  _atom_site_label
  _atom_site_occupancy
  _atom_site_fract_x
  _atom_site_fract_y
  _atom_site_fract_z
  _atom_site_thermal_displace_type
  _atom_site_B_iso_or_equiv
  _atom_site_type_symbol
  _atom_site_charge
         C1        1.0000    0.50250   0.83910   0.71250   Biso      1.000     C          -0.057227           
         C2        1.0000    0.52690   0.16410   0.17550   Biso      1.000     C          0.54991   
         C3        1.0000    0.00640   0.54460   0.01200   Biso      1.000     C          0.277529  
         C4        1.0000    0.36670   0.83470   0.79690   Biso      1.000     C          -0.072519           
         C5        1.0000    0.56470   0.59320   0.84060   Biso      1.000     C          0.27397   
         C6        1.0000    0.15430   0.28020   0.38640   Biso      1.000     C          0.595073  
         C7        1.0000    0.52380   0.66260   0.18200   Biso      1.000     C          0.556783  
         C8        1.0000    0.20100   0.45620   0.86660   Biso      1.000     C          0.027252  
         C9        1.0000    0.05410   0.16090   0.28750   Biso      1.000     C          -0.056921           
         C10       1.0000    0.97150   0.28560   0.14060   Biso      1.000     C          -0.167495           
         C11       1.0000    0.99830   0.16530   0.20310   Biso      1.000     C          -0.069827           
         C12       1.0000    0.96850   0.69470   0.87010   Biso      1.000     C          0.018659  
         C13       1.0000    0.82090   0.71980   0.61360   Biso      1.000     C          0.596274  
         C14       1.0000    0.51700   0.41480   0.17740   Biso      1.000     C          -0.159571           
         C15       1.0000    0.07640   0.28300   0.30520   Biso      1.000     C          -0.009632           
         C16       1.0000    0.99850   0.40680   0.15940   Biso      1.000     C          0.274898  
         C17       1.0000    0.36840   0.33740   0.81800   Biso      1.000     C          0.556217  
         C18       1.0000    0.04740   0.40340   0.24100   Biso      1.000     C          -0.210142           
         C19       1.0000    0.56300   0.45540   0.98800   Biso      1.000     C          0.27675   
         C20       1.0000    0.66460   0.71700   0.69480   Biso      1.000     C          -0.008459           
         C21       1.0000    0.54130   0.56940   0.03880   Biso      1.000     C          -0.255406           
         C22       1.0000    0.10920   0.58520   0.82260   Biso      1.000     C          -0.159356           
         C23       1.0000    0.07880   0.03120   0.34820   Biso      1.000     C          0.621846  
         C24       1.0000    0.91950   0.67270   0.96350   Biso      1.000     C          -0.23723  
         C25       1.0000    0.69180   0.59660   0.75900   Biso      1.000     C          -0.20992  
         C26       1.0000    0.45820   0.96880   0.65180   Biso      1.000     C          0.623244  
         C27       1.0000    0.86650   0.83590   0.82450   Biso      1.000     C          0.549695  
         C28       1.0000    0.52380   0.54380   0.13340   Biso      1.000     C          0.025144  
         C29       1.0000    0.55570   0.32730   0.03650   Biso      1.000     C          -0.238904           
         C30       1.0000    0.53330   0.30530   0.12990   Biso      1.000     C          0.020302  
         C31       1.0000    0.14950   0.43060   0.96120   Biso      1.000     C          -0.256348           
         C32       1.0000    0.39770   0.71440   0.85940   Biso      1.000     C          -0.165492           
         Cd1       1.0000    0.33012   0.21901   0.53237   Biso      1.000     Cd          1.074885  
         Cd2       1.0000    0.08150   0.78099   0.46763   Biso      1.000     Cd          1.075149  
         Cd3       1.0000    0.51744   0.89817   0.25371   Biso      1.000     Cd          0.988266  
         Cd4       1.0000    0.66932   0.10183   0.74629   Biso      1.000     Cd          0.988299  
         H1        1.0000    0.25630   0.91460   0.80920   Biso      1.000     H          0.126618  
         H2        1.0000    0.80010   0.51530   0.74630   Biso      1.000     H          0.142315  
         H3        1.0000    0.98010   0.08540   0.19080   Biso      1.000     H          0.126077  
         H4        1.0000    0.20710   0.34080   0.99120   Biso      1.000     H          0.142293  
         H5        1.0000    0.56650   0.25320   0.00400   Biso      1.000     H          0.146822  
         H6        1.0000    0.82370   0.74680   0.99600   Biso      1.000     H          0.145673  
         H7        1.0000    0.06170   0.48470   0.25370   Biso      1.000     H          0.143169  
         H8        1.0000    0.30920   0.71280   0.91380   Biso      1.000     H          0.136659  
         H9        1.0000    0.93580   0.28720   0.08620   Biso      1.000     H          0.136864  
         H10       1.0000    0.50070   0.40090   0.24150   Biso      1.000     H          0.124147  
         H11       1.0000    0.53910   0.65920   0.00880   Biso      1.000     H          0.142228  
         H12       1.0000    0.14310   0.59910   0.75850   Biso      1.000     H          0.123596  
         O1        1.0000    0.50160   0.08130   0.13110   Biso      1.000     O          -0.519352           
         O2        1.0000    0.96250   0.61050   0.59710   Biso      1.000     O          -0.562555           
         O3        1.0000    0.37890   0.97660   0.58580   Biso      1.000     O          -0.531525           
         O4        1.0000    0.17010   0.38950   0.40290   Biso      1.000     O          -0.561936           
         O5        1.0000    0.49580   0.78530   0.14130   Biso      1.000     O          -0.509667           
         O6        1.0000    0.45390   0.36620   0.73460   Biso      1.000     O          -0.608453           
         O7        1.0000    0.53400   0.12810   0.26230   Biso      1.000     O          -0.592543           
         O8        1.0000    0.94130   0.02340   0.41420   Biso      1.000     O          -0.531765           
         O9        1.0000    0.92440   0.87190   0.73770   Biso      1.000     O          -0.59172  
         O10       1.0000    0.55470   0.63380   0.26540   Biso      1.000     O          -0.608235           
         O11       1.0000    0.47930   0.08160   0.66300   Biso      1.000     O          -0.568685           
         O12       1.0000    0.79600   0.83360   0.56060   Biso      1.000     O          -0.543336           
         O13       1.0000    0.59880   0.46120   0.89620   Biso      1.000     O          -0.201649           
         O14       1.0000    0.95620   0.53880   0.10380   Biso      1.000     O          -0.203199           
         O15       1.0000    0.19020   0.16640   0.43940   Biso      1.000     O          -0.542074           
         O16       1.0000    0.42240   0.21470   0.85870   Biso      1.000     O          -0.508923           
         O17       1.0000    0.22390   0.91840   0.33700   Biso      1.000     O          -0.567126           
         O18       1.0000    0.71400   0.91870   0.86890   Biso      1.000     O          -0.519413 