
##########################################################################
#               Crystallographic Information Format file
#               Produced by PyCifRW module
#
#  This is a CIF file.  CIF has been adopted by the International
#  Union of Crystallography as the standard for data archiving and
#  transmission.
#
#  For information on this file format, follow the CIF links at
#  http://www.iucr.org
##########################################################################

data_image0

_cell_length_a                          9.528
_cell_length_b                          12.0112
_cell_length_c                          16.899
_cell_angle_alpha                       96.3289
_cell_angle_beta                        90
_cell_angle_gamma                       113.368
_symmetry_space_group_name_H-M          'P 1'
_symmetry_int_tables_number             1
loop_
  _symmetry_equiv_pos_as_xyz
         'x, y, z' 
loop_
  _atom_site_label
  _atom_site_occupancy
  _atom_site_fract_x
  _atom_site_fract_y
  _atom_site_fract_z
  _atom_site_thermal_displace_type
  _atom_site_B_iso_or_equiv
  _atom_site_type_symbol
  _atom_site_charge
         Ag1       1.0000    0.22294   0.68394   0.41638   Biso      1.000     Ag          0.334696  
         Ag2       1.0000    0.53900   0.31606   0.08362   Biso      1.000     Ag          0.334492  
         Ag3       1.0000    0.77706   0.31606   0.58362   Biso      1.000     Ag          0.334696  
         Ag4       1.0000    0.46100   0.68394   0.91638   Biso      1.000     Ag          0.334492  
         C1        1.0000    0.18080   0.05800   0.37830   Biso      1.000     C          0.643385  
         C2        1.0000    0.53640   0.06980   0.51230   Biso      1.000     C          0.501588  
         C3        1.0000    0.97520   0.18920   0.76970   Biso      1.000     C          -0.134602           
         C4        1.0000    0.14540   0.87180   0.18430   Biso      1.000     C          0.015558  
         C5        1.0000    0.88860   0.76020   0.47470   Biso      1.000     C          0.650065  
         C6        1.0000    0.79020   0.62800   0.46450   Biso      1.000     C          -0.062595           
         C7        1.0000    0.72270   0.92960   0.24510   Biso      1.000     C          0.499313  
         C8        1.0000    0.27390   0.45060   0.99230   Biso      1.000     C          0.026618  
         C9        1.0000    0.27730   0.07040   0.75490   Biso      1.000     C          0.499313  
         C10       1.0000    0.12050   0.54440   0.09340   Biso      1.000     C          -0.129584           
         C11       1.0000    0.42390   0.54440   0.59340   Biso      1.000     C          -0.129495           
         C12       1.0000    0.53340   0.06980   0.01230   Biso      1.000     C          0.500126  
         C13       1.0000    0.72610   0.54940   0.00770   Biso      1.000     C          0.026618  
         C14       1.0000    0.94910   0.24840   0.70900   Biso      1.000     C          0.071776  
         C15       1.0000    0.27360   0.12820   0.31570   Biso      1.000     C          0.016217  
         C16       1.0000    0.87160   0.76020   0.97470   Biso      1.000     C          0.648969  
         C17       1.0000    0.50580   0.80440   0.76070   Biso      1.000     C          0.080047  
         C18       1.0000    0.87950   0.45560   0.90660   Biso      1.000     C          -0.129584           
         C19       1.0000    0.17670   0.45060   0.49230   Biso      1.000     C          0.024938  
         C20       1.0000    0.61430   0.38460   0.45350   Biso      1.000     C          0.097386  
         C21       1.0000    0.81920   0.94200   0.62170   Biso      1.000     C          0.643386  
         C22       1.0000    0.41950   0.13520   0.30080   Biso      1.000     C          -0.144677           
         C23       1.0000    0.12280   0.94200   0.12170   Biso      1.000     C          0.643357  
         C24       1.0000    0.71570   0.13520   0.80080   Biso      1.000     C          -0.146013           
         C25       1.0000    0.91490   0.57780   0.91190   Biso      1.000     C          -0.051228           
         C26       1.0000    0.16220   0.37200   0.03550   Biso      1.000     C          -0.06305  
         C27       1.0000    0.66290   0.57780   0.41190   Biso      1.000     C          -0.049605           
         C28       1.0000    0.12840   0.23980   0.02530   Biso      1.000     C          0.648968  
         C29       1.0000    0.28430   0.86480   0.19920   Biso      1.000     C          -0.146012           
         C30       1.0000    0.83780   0.62800   0.96450   Biso      1.000     C          -0.063052           
         C31       1.0000    0.87720   0.05800   0.87830   Biso      1.000     C          0.643357  
         C32       1.0000    0.78600   0.81080   0.73030   Biso      1.000     C          -0.134866           
         C33       1.0000    0.20980   0.37200   0.53550   Biso      1.000     C          -0.062597           
         C34       1.0000    0.70140   0.19560   0.73930   Biso      1.000     C          0.082488  
         C35       1.0000    0.20690   0.92960   0.74510   Biso      1.000     C          0.500656  
         C36       1.0000    0.08510   0.42220   0.08810   Biso      1.000     C          -0.051228           
         C37       1.0000    0.11140   0.23980   0.52530   Biso      1.000     C          0.650064  
         C38       1.0000    0.22970   0.61540   0.04650   Biso      1.000     C          0.098098  
         C39       1.0000    0.29860   0.80440   0.26070   Biso      1.000     C          0.082488  
         C40       1.0000    0.33710   0.42220   0.58810   Biso      1.000     C          -0.049593           
         C41       1.0000    0.38570   0.61540   0.54650   Biso      1.000     C          0.097394  
         C42       1.0000    0.57610   0.45560   0.40660   Biso      1.000     C          -0.129477           
         C43       1.0000    0.49420   0.19560   0.23930   Biso      1.000     C          0.080057  
         C44       1.0000    0.29930   0.24840   0.20900   Biso      1.000     C          0.072035  
         C45       1.0000    0.72640   0.87180   0.68430   Biso      1.000     C          0.016217  
         C46       1.0000    0.70070   0.75160   0.79100   Biso      1.000     C          0.072035  
         C47       1.0000    0.05090   0.75160   0.29100   Biso      1.000     C          0.071775  
         C48       1.0000    0.46660   0.93020   0.98770   Biso      1.000     C          0.500126  
         C49       1.0000    0.46360   0.93020   0.48770   Biso      1.000     C          0.501588  
         C50       1.0000    0.21400   0.18920   0.26970   Biso      1.000     C          -0.134865           
         C51       1.0000    0.77030   0.38460   0.95350   Biso      1.000     C          0.098098  
         C52       1.0000    0.79310   0.07040   0.25490   Biso      1.000     C          0.500656  
         C53       1.0000    0.58050   0.86480   0.69920   Biso      1.000     C          -0.144668           
         C54       1.0000    0.85460   0.12820   0.81570   Biso      1.000     C          0.01556   
         C55       1.0000    0.02480   0.81080   0.23030   Biso      1.000     C          -0.134601           
         C56       1.0000    0.82330   0.54940   0.50770   Biso      1.000     C          0.024937  
         H1        1.0000    0.96970   0.71180   0.32210   Biso      1.000     H          0.091126  
         H2        1.0000    0.67020   0.58100   0.04140   Biso      1.000     H          0.103953  
         H3        1.0000    0.11850   0.19040   0.27940   Biso      1.000     H          0.144969  
         H4        1.0000    0.01050   0.37320   0.11920   Biso      1.000     H          0.133007  
         H5        1.0000    0.03030   0.28820   0.67790   Biso      1.000     H          0.091126  
         H6        1.0000    0.88150   0.80960   0.72060   Biso      1.000     H          0.144969  
         H7        1.0000    0.08920   0.41900   0.45860   Biso      1.000     H          0.104129  
         H8        1.0000    0.50890   0.57960   0.62880   Biso      1.000     H          0.118074  
         H9        1.0000    0.32980   0.41900   0.95860   Biso      1.000     H          0.103953  
         H10       1.0000    0.92930   0.42040   0.87120   Biso      1.000     H          0.118184  
         H11       1.0000    0.60650   0.19760   0.72940   Biso      1.000     H          0.103552  
         H12       1.0000    0.49110   0.42040   0.37120   Biso      1.000     H          0.118073  
         H13       1.0000    0.44750   0.69840   0.55000   Biso      1.000     H          0.100735  
         H14       1.0000    0.46620   0.09940   0.33210   Biso      1.000     H          0.137338  
         H15       1.0000    0.91080   0.58100   0.54140   Biso      1.000     H          0.104129  
         H16       1.0000    0.39350   0.80240   0.27060   Biso      1.000     H          0.103552  
         H17       1.0000    0.07190   0.19040   0.77940   Biso      1.000     H          0.145011  
         H18       1.0000    0.92810   0.80960   0.22060   Biso      1.000     H          0.145011  
         H19       1.0000    0.25090   0.69840   0.05000   Biso      1.000     H          0.101064  
         H20       1.0000    0.74910   0.30160   0.95000   Biso      1.000     H          0.101064  
         H21       1.0000    0.63320   0.09940   0.83210   Biso      1.000     H          0.137489  
         H22       1.0000    0.25790   0.28820   0.17790   Biso      1.000     H          0.090604  
         H23       1.0000    0.07070   0.57960   0.12880   Biso      1.000     H          0.118183  
         H24       1.0000    0.74210   0.71180   0.82210   Biso      1.000     H          0.090604  
         H25       1.0000    0.36270   0.37320   0.61920   Biso      1.000     H          0.132195  
         H26       1.0000    0.55250   0.30160   0.45000   Biso      1.000     H          0.100736  
         H27       1.0000    0.40890   0.80240   0.77060   Biso      1.000     H          0.104134  
         H28       1.0000    0.98950   0.62680   0.88080   Biso      1.000     H          0.133007  
         H29       1.0000    0.53380   0.90060   0.66790   Biso      1.000     H          0.137338  
         H30       1.0000    0.36680   0.90060   0.16790   Biso      1.000     H          0.137489  
         H31       1.0000    0.63730   0.62680   0.38080   Biso      1.000     H          0.132196  
         H32       1.0000    0.59110   0.19760   0.22940   Biso      1.000     H          0.104134  
         N1        1.0000    0.56210   0.74820   0.80710   Biso      1.000     N          -0.179652           
         N2        1.0000    0.73490   0.42960   0.50330   Biso      1.000     N          -0.168686           
         N3        1.0000    0.26510   0.57040   0.49670   Biso      1.000     N          -0.168687           
         N4        1.0000    0.43790   0.25180   0.19290   Biso      1.000     N          -0.179653           
         N5        1.0000    0.81390   0.25180   0.69290   Biso      1.000     N          -0.180803           
         N6        1.0000    0.69470   0.42960   0.00330   Biso      1.000     N          -0.170073           
         N7        1.0000    0.18610   0.74820   0.30710   Biso      1.000     N          -0.180803           
         N8        1.0000    0.30530   0.57040   0.99670   Biso      1.000     N          -0.170073           
         O1        1.0000    0.75250   0.97820   0.57360   Biso      1.000     O          -0.652113           
         O2        1.0000    0.01960   0.79160   0.50560   Biso      1.000     O          -0.662097           
         O3        1.0000    0.80470   0.12260   0.32430   Biso      1.000     O          -0.621984           
         O4        1.0000    0.95650   0.95680   0.62130   Biso      1.000     O          -0.686824           
         O5        1.0000    0.77200   0.79160   0.00560   Biso      1.000     O          -0.66077  
         O6        1.0000    0.98040   0.20840   0.49440   Biso      1.000     O          -0.662097           
         O7        1.0000    0.99490   0.82860   0.95250   Biso      1.000     O          -0.667489           
         O8        1.0000    0.33990   0.87260   0.51840   Biso      1.000     O          -0.583151           
         O9        1.0000    0.71170   0.88060   0.30700   Biso      1.000     O          -0.602948           
         O10       1.0000    0.16630   0.17140   0.54750   Biso      1.000     O          -0.668111           
         O11       1.0000    0.04350   0.04320   0.37870   Biso      1.000     O          -0.686824           
         O12       1.0000    0.24750   0.02180   0.42640   Biso      1.000     O          -0.652113           
         O13       1.0000    0.46730   0.12740   0.98160   Biso      1.000     O          -0.581432           
         O14       1.0000    0.83110   0.11940   0.19300   Biso      1.000     O          -0.603546           
         O15       1.0000    0.31790   0.12260   0.82430   Biso      1.000     O          -0.62159  
         O16       1.0000    0.28830   0.11940   0.69300   Biso      1.000     O          -0.602948           
         O17       1.0000    0.64660   0.11380   0.05970   Biso      1.000     O          -0.60272  
         O18       1.0000    0.35340   0.88620   0.94030   Biso      1.000     O          -0.60272  
         O19       1.0000    0.66010   0.12740   0.48160   Biso      1.000     O          -0.583151           
         O20       1.0000    0.00510   0.17140   0.04750   Biso      1.000     O          -0.667489           
         O21       1.0000    0.16890   0.88060   0.80700   Biso      1.000     O          -0.603545           
         O22       1.0000    0.19530   0.87740   0.67570   Biso      1.000     O          -0.621984           
         O23       1.0000    0.53280   0.88620   0.44030   Biso      1.000     O          -0.603246           
         O24       1.0000    0.68210   0.87740   0.17570   Biso      1.000     O          -0.62159  
         O25       1.0000    0.22570   0.97820   0.07360   Biso      1.000     O          -0.651959           
         O26       1.0000    0.77430   0.02180   0.92640   Biso      1.000     O          -0.651959           
         O27       1.0000    0.83370   0.82860   0.45250   Biso      1.000     O          -0.668111           
         O28       1.0000    0.00030   0.95680   0.12130   Biso      1.000     O          -0.685888           
         O29       1.0000    0.53270   0.87260   0.01840   Biso      1.000     O          -0.581432           
         O30       1.0000    0.22800   0.20840   0.99440   Biso      1.000     O          -0.66077  
         O31       1.0000    0.46720   0.11380   0.55970   Biso      1.000     O          -0.603246           
         O32       1.0000    0.99970   0.04320   0.87870   Biso      1.000     O          -0.685888           
         Sm1       1.0000    0.80554   0.00914   0.43421   Biso      1.000     Sm          2.097921  
         Sm2       1.0000    0.20360   0.00914   0.93421   Biso      1.000     Sm          2.095479  
         Sm3       1.0000    0.19446   0.99086   0.56579   Biso      1.000     Sm          2.097921  
         Sm4       1.0000    0.79640   0.99086   0.06579   Biso      1.000     Sm          2.095479 