
##########################################################################
#               Crystallographic Information Format file
#               Produced by PyCifRW module
#
#  This is a CIF file.  CIF has been adopted by the International
#  Union of Crystallography as the standard for data archiving and
#  transmission.
#
#  For information on this file format, follow the CIF links at
#  http://www.iucr.org
##########################################################################

data_image0

_cell_length_a                          9.49
_cell_length_b                          12.0717
_cell_length_c                          16.783
_cell_angle_alpha                       96.0088
_cell_angle_beta                        90
_cell_angle_gamma                       113.146
_symmetry_space_group_name_H-M          'P 1'
_symmetry_int_tables_number             1
loop_
  _symmetry_equiv_pos_as_xyz
         'x, y, z' 
loop_
  _atom_site_label
  _atom_site_occupancy
  _atom_site_fract_x
  _atom_site_fract_y
  _atom_site_fract_z
  _atom_site_thermal_displace_type
  _atom_site_B_iso_or_equiv
  _atom_site_type_symbol
  _atom_site_charge
         Ag1       1.0000    0.71697   0.68462   0.42047   Biso      1.000     Ag          0.34323000000000004           
         Ag2       1.0000    0.28303   0.31538   0.57953   Biso      1.000     Ag          0.34322600000000003           
         Ag3       1.0000    0.03235   0.31538   0.07953   Biso      1.000     Ag          0.343294  
         Ag4       1.0000    0.96765   0.68462   0.92047   Biso      1.000     Ag          0.343291  
         C1        1.0000    0.83920   0.41680   0.58710   Biso      1.000     C          -0.047882999999999995         
         C2        1.0000    0.29120   0.63160   0.46370   Biso      1.000     C          -0.061392999999999996         
         C3        1.0000    0.03570   0.06980   0.51050   Biso      1.000     C          0.501328  
         C4        1.0000    0.64300   0.87120   0.18480   Biso      1.000     C          0.019686000000000002          
         C5        1.0000    0.73060   0.61200   0.05090   Biso      1.000     C          0.09320099999999999           
         C6        1.0000    0.22820   0.87120   0.68480   Biso      1.000     C          0.020112  
         C7        1.0000    0.62510   0.23600   0.02340   Biso      1.000     C          0.635504  
         C8        1.0000    0.45410   0.25120   0.71010   Biso      1.000     C          0.075045  
         C9        1.0000    0.34040   0.63160   0.96370   Biso      1.000     C          -0.060375           
         C10       1.0000    0.35700   0.12880   0.81520   Biso      1.000     C          0.019688  
         C11       1.0000    0.70750   0.92960   0.74570   Biso      1.000     C          0.495091  
         C12       1.0000    0.16080   0.58320   0.41290   Biso      1.000     C          -0.047883999999999996         
         C13       1.0000    0.61090   0.23600   0.52340   Biso      1.000     C          0.635864  
         C14       1.0000    0.54590   0.74880   0.28990   Biso      1.000     C          0.075046  
         C15       1.0000    0.71160   0.18920   0.26950   Biso      1.000     C          -0.13104100000000002          
         C16       1.0000    0.00530   0.80360   0.76220   Biso      1.000     C          0.079086  
         C17       1.0000    0.99470   0.19640   0.23780   Biso      1.000     C          0.079088  
         C18       1.0000    0.79830   0.80360   0.26220   Biso      1.000     C          0.077684  
         C19       1.0000    0.08340   0.86620   0.69990   Biso      1.000     C          -0.145954           
         C20       1.0000    0.52240   0.81080   0.23050   Biso      1.000     C          -0.13106800000000002          
         C21       1.0000    0.96430   0.93020   0.48950   Biso      1.000     C          0.501307  
         C22       1.0000    0.77490   0.44840   0.99440   Biso      1.000     C          0.023737  
         C23       1.0000    0.77180   0.12880   0.31520   Biso      1.000     C          0.020113  
         C24       1.0000    0.22210   0.92960   0.24570   Biso      1.000     C          0.495345  
         C25       1.0000    0.32650   0.55160   0.50560   Biso      1.000     C          0.024781  
         C26       1.0000    0.37980   0.05480   0.87830   Biso      1.000     C          0.630962  
         C27       1.0000    0.62020   0.94520   0.12170   Biso      1.000     C          0.630963  
         C28       1.0000    0.61630   0.53940   0.09550   Biso      1.000     C          -0.129859           
         C29       1.0000    0.32500   0.94520   0.62170   Biso      1.000     C          0.630867  
         C30       1.0000    0.70880   0.36840   0.53630   Biso      1.000     C          -0.061401           
         C31       1.0000    0.96590   0.93020   0.98950   Biso      1.000     C          0.5002340000000001  
         C32       1.0000    0.03410   0.06980   0.01050   Biso      1.000     C          0.50026   
         C33       1.0000    0.77790   0.07040   0.75430   Biso      1.000     C          0.49536   
         C34       1.0000    0.20170   0.19640   0.73780   Biso      1.000     C          0.077685  
         C35       1.0000    0.11860   0.38800   0.44910   Biso      1.000     C          0.09426699999999999           
         C36       1.0000    0.92310   0.53940   0.59550   Biso      1.000     C          -0.127831           
         C37       1.0000    0.47760   0.18920   0.76950   Biso      1.000     C          -0.13106700000000002          
         C38       1.0000    0.78280   0.86620   0.19990   Biso      1.000     C          -0.143791           
         C39       1.0000    0.20290   0.74880   0.78990   Biso      1.000     C          0.07660700000000001           
         C40       1.0000    0.07690   0.46060   0.40450   Biso      1.000     C          -0.127832           
         C41       1.0000    0.91660   0.13380   0.30010   Biso      1.000     C          -0.145951           
         C42       1.0000    0.26940   0.38800   0.94910   Biso      1.000     C          0.093192  
         C43       1.0000    0.37490   0.76400   0.97660   Biso      1.000     C          0.635506  
         C44       1.0000    0.67350   0.44840   0.49440   Biso      1.000     C          0.024783000000000003          
         C45       1.0000    0.42240   0.58320   0.91290   Biso      1.000     C          -0.047624           
         C46       1.0000    0.65960   0.36840   0.03630   Biso      1.000     C          -0.060382000000000005         
         C47       1.0000    0.79710   0.25120   0.21010   Biso      1.000     C          0.076609  
         C48       1.0000    0.67500   0.05480   0.37830   Biso      1.000     C          0.630884  
         C49       1.0000    0.57760   0.41680   0.08710   Biso      1.000     C          -0.047614           
         C50       1.0000    0.29250   0.07040   0.25430   Biso      1.000     C          0.495105  
         C51       1.0000    0.21720   0.13380   0.80010   Biso      1.000     C          -0.143789           
         C52       1.0000    0.22510   0.55160   0.00560   Biso      1.000     C          0.023735  
         C53       1.0000    0.88140   0.61200   0.55090   Biso      1.000     C          0.094278  
         C54       1.0000    0.38370   0.46060   0.90450   Biso      1.000     C          -0.129852           
         C55       1.0000    0.38910   0.76400   0.47660   Biso      1.000     C          0.6358600000000001  
         C56       1.0000    0.28840   0.81080   0.73050   Biso      1.000     C          -0.13103399999999998          
         Dy1       1.0000    0.30385   0.00935   0.43407   Biso      1.000     Dy          2.07807   
         Dy2       1.0000    0.29450   0.99065   0.06593   Biso      1.000     Dy          2.078278  
         Dy3       1.0000    0.70551   0.00936   0.93407   Biso      1.000     Dy          2.07829   
         Dy4       1.0000    0.69616   0.99066   0.56593   Biso      1.000     Dy          2.078123  
         H1        1.0000    0.56550   0.57340   0.13120   Biso      1.000     H          0.12108800000000002           
         H2        1.0000    0.41370   0.58280   0.53970   Biso      1.000     H          0.103433  
         H3        1.0000    0.86570   0.90400   0.16890   Biso      1.000     H          0.13777899999999998           
         H4        1.0000    0.05870   0.30520   0.44390   Biso      1.000     H          0.102452  
         H5        1.0000    0.96170   0.09600   0.33110   Biso      1.000     H          0.13868699999999998           
         H6        1.0000    0.83090   0.41720   0.96030   Biso      1.000     H          0.10319400000000001           
         H7        1.0000    0.09250   0.19960   0.22780   Biso      1.000     H          0.10904100000000001           
         H8        1.0000    0.16910   0.58280   0.03970   Biso      1.000     H          0.10319400000000001           
         H9        1.0000    0.24650   0.30520   0.94390   Biso      1.000     H          0.10291800000000001           
         H10       1.0000    0.43450   0.42660   0.86880   Biso      1.000     H          0.12108599999999999           
         H11       1.0000    0.49730   0.36660   0.11500   Biso      1.000     H          0.134358  
         H12       1.0000    0.61430   0.18800   0.27850   Biso      1.000     H          0.143292  
         H13       1.0000    0.42630   0.81200   0.22150   Biso      1.000     H          0.143837  
         H14       1.0000    0.38570   0.81200   0.72150   Biso      1.000     H          0.143293  
         H15       1.0000    0.13070   0.63340   0.38500   Biso      1.000     H          0.134155  
         H16       1.0000    0.50270   0.63340   0.88500   Biso      1.000     H          0.13435999999999998           
         H17       1.0000    0.94130   0.69480   0.55610   Biso      1.000     H          0.10245499999999999           
         H18       1.0000    0.46230   0.70520   0.31870   Biso      1.000     H          0.089335  
         H19       1.0000    0.03830   0.90400   0.66890   Biso      1.000     H          0.138686  
         H20       1.0000    0.57370   0.18800   0.77850   Biso      1.000     H          0.143836  
         H21       1.0000    0.10710   0.19960   0.72780   Biso      1.000     H          0.108993  
         H22       1.0000    0.90750   0.80040   0.77220   Biso      1.000     H          0.10904000000000001           
         H23       1.0000    0.75350   0.69480   0.05610   Biso      1.000     H          0.10291900000000001           
         H24       1.0000    0.00790   0.57340   0.63120   Biso      1.000     H          0.119654  
         H25       1.0000    0.58630   0.41720   0.46030   Biso      1.000     H          0.103432  
         H26       1.0000    0.24290   0.70520   0.81870   Biso      1.000     H          0.0886    
         H27       1.0000    0.86930   0.36660   0.61500   Biso      1.000     H          0.134153  
         H28       1.0000    0.99210   0.42660   0.36880   Biso      1.000     H          0.119653  
         H29       1.0000    0.89290   0.80040   0.27220   Biso      1.000     H          0.10899400000000001           
         H30       1.0000    0.53770   0.29480   0.68130   Biso      1.000     H          0.089334  
         H31       1.0000    0.75710   0.29480   0.18130   Biso      1.000     H          0.0886    
         H32       1.0000    0.13430   0.09600   0.83110   Biso      1.000     H          0.13777899999999998           
         N1        1.0000    0.24190   0.43220   0.49940   Biso      1.000     N          -0.17351  
         N2        1.0000    0.75810   0.56780   0.50060   Biso      1.000     N          -0.173508           
         N3        1.0000    0.68130   0.74760   0.30820   Biso      1.000     N          -0.18449100000000002          
         N4        1.0000    0.19030   0.43220   0.99940   Biso      1.000     N          -0.172232           
         N5        1.0000    0.80970   0.56780   0.00060   Biso      1.000     N          -0.172229           
         N6        1.0000    0.06630   0.74760   0.80820   Biso      1.000     N          -0.185644           
         N7        1.0000    0.93370   0.25240   0.19180   Biso      1.000     N          -0.185643           
         N8        1.0000    0.31870   0.25240   0.69180   Biso      1.000     N          -0.18448900000000001          
         O1        1.0000    0.84030   0.87420   0.52070   Biso      1.000     O          -0.578286           
         O2        1.0000    0.49710   0.16680   0.04490   Biso      1.000     O          -0.663938           
         O3        1.0000    0.79010   0.11900   0.69140   Biso      1.000     O          -0.597909           
         O4        1.0000    0.33030   0.83320   0.45510   Biso      1.000     O          -0.663926           
         O5        1.0000    0.25870   0.98600   0.57260   Biso      1.000     O          -0.664644           
         O6        1.0000    0.81820   0.12300   0.82440   Biso      1.000     O          -0.621999           
         O7        1.0000    0.52210   0.79740   0.50830   Biso      1.000     O          -0.650742           
         O8        1.0000    0.96610   0.12580   0.97930   Biso      1.000     O          -0.577821           
         O9        1.0000    0.53690   0.03760   0.37740   Biso      1.000     O          -0.663409           
         O10       1.0000    0.50070   0.03760   0.87740   Biso      1.000     O          -0.663733           
         O11       1.0000    0.18180   0.87700   0.17560   Biso      1.000     O          -0.621993           
         O12       1.0000    0.15970   0.12580   0.47930   Biso      1.000     O          -0.578279           
         O13       1.0000    0.14990   0.11500   0.05750   Biso      1.000     O          -0.604259           
         O14       1.0000    0.69520   0.87700   0.67560   Biso      1.000     O          -0.62192  
         O15       1.0000    0.85010   0.88500   0.94250   Biso      1.000     O          -0.604248           
         O16       1.0000    0.27270   0.01400   0.92740   Biso      1.000     O          -0.664513           
         O17       1.0000    0.50290   0.83320   0.95510   Biso      1.000     O          -0.663949           
         O18       1.0000    0.72730   0.98600   0.07260   Biso      1.000     O          -0.664509           
         O19       1.0000    0.66970   0.16680   0.54490   Biso      1.000     O          -0.66394  
         O20       1.0000    0.47790   0.20260   0.49170   Biso      1.000     O          -0.650727           
         O21       1.0000    0.30480   0.12300   0.32440   Biso      1.000     O          -0.6219180000000001           
         O22       1.0000    0.03490   0.88500   0.44250   Biso      1.000     O          -0.604905           
         O23       1.0000    0.67110   0.88100   0.80860   Biso      1.000     O          -0.597959           
         O24       1.0000    0.74130   0.01400   0.42740   Biso      1.000     O          -0.664647           
         O25       1.0000    0.27530   0.79740   0.00830   Biso      1.000     O          -0.650514           
         O26       1.0000    0.96510   0.11500   0.55750   Biso      1.000     O          -0.6049479999999999           
         O27       1.0000    0.46310   0.96240   0.62260   Biso      1.000     O          -0.663393           
         O28       1.0000    0.20990   0.88100   0.30860   Biso      1.000     O          -0.597907           
         O29       1.0000    0.03390   0.87420   0.02070   Biso      1.000     O          -0.5777800000000001           
         O30       1.0000    0.32890   0.11900   0.19140   Biso      1.000     O          -0.597982           
         O31       1.0000    0.72470   0.20260   0.99170   Biso      1.000     O          -0.650504           
         O32       1.0000    0.49930   0.96240   0.12260   Biso      1.000     O          -0.66372 