
##########################################################################
#               Crystallographic Information Format file
#               Produced by PyCifRW module
#
#  This is a CIF file.  CIF has been adopted by the International
#  Union of Crystallography as the standard for data archiving and
#  transmission.
#
#  For information on this file format, follow the CIF links at
#  http://www.iucr.org
##########################################################################

data_image0

_cell_length_a                          9.5064
_cell_length_b                          12.0459
_cell_length_c                          16.788
_cell_angle_alpha                       96.3864
_cell_angle_beta                        90
_cell_angle_gamma                       113.24
_symmetry_space_group_name_H-M          'P 1'
_symmetry_int_tables_number             1
loop_
  _symmetry_equiv_pos_as_xyz
         'x, y, z' 
loop_
  _atom_site_label
  _atom_site_occupancy
  _atom_site_fract_x
  _atom_site_fract_y
  _atom_site_fract_z
  _atom_site_thermal_displace_type
  _atom_site_B_iso_or_equiv
  _atom_site_type_symbol
  _atom_site_charge
         Ag1       1.0000    0.71984   0.68226   0.41761   Biso      1.000     Ag          0.337914  
         Ag2       1.0000    0.96242   0.68226   0.91761   Biso      1.000     Ag          0.338002  
         Ag3       1.0000    0.28016   0.31774   0.58239   Biso      1.000     Ag          0.337914  
         Ag4       1.0000    0.03758   0.31774   0.08239   Biso      1.000     Ag          0.338002  
         C1        1.0000    0.22640   0.55160   0.00700   Biso      1.000     C          0.025702  
         C2        1.0000    0.37430   0.76320   0.97560   Biso      1.000     C          0.641147  
         C3        1.0000    0.38890   0.76320   0.47560   Biso      1.000     C          0.642175  
         C4        1.0000    0.61110   0.23680   0.52440   Biso      1.000     C          0.642175  
         C5        1.0000    0.99470   0.19720   0.23860   Biso      1.000     C          0.07917300000000001           
         C6        1.0000    0.88490   0.61280   0.54950   Biso      1.000     C          0.09235700000000001           
         C7        1.0000    0.33930   0.62960   0.96410   Biso      1.000     C          -0.065135           
         C8        1.0000    0.92510   0.54280   0.59480   Biso      1.000     C          -0.128245           
         C9        1.0000    0.77120   0.12900   0.31540   Biso      1.000     C          0.015862  
         C10       1.0000    0.22150   0.92980   0.24500   Biso      1.000     C          0.49647299999999994           
         C11       1.0000    0.20040   0.74740   0.78950   Biso      1.000     C          0.075933  
         C12       1.0000    0.28710   0.80940   0.72980   Biso      1.000     C          -0.130943           
         C13       1.0000    0.91790   0.13500   0.30070   Biso      1.000     C          -0.146326           
         C14       1.0000    0.00530   0.80280   0.76140   Biso      1.000     C          0.07917300000000001           
         C15       1.0000    0.29030   0.62960   0.46410   Biso      1.000     C          -0.06569900000000001          
         C16       1.0000    0.45300   0.25260   0.71050   Biso      1.000     C          0.074698  
         C17       1.0000    0.62570   0.23680   0.02440   Biso      1.000     C          0.6411479999999999  
         C18       1.0000    0.67680   0.05520   0.37870   Biso      1.000     C          0.638124  
         C19       1.0000    0.03430   0.07020   0.01130   Biso      1.000     C          0.49785799999999997           
         C20       1.0000    0.70970   0.37040   0.53590   Biso      1.000     C          -0.06569900000000001          
         C21       1.0000    0.47770   0.19060   0.77020   Biso      1.000     C          -0.129608           
         C22       1.0000    0.27210   0.38720   0.95050   Biso      1.000     C          0.094903  
         C23       1.0000    0.64220   0.87100   0.18460   Biso      1.000     C          0.016241  
         C24       1.0000    0.52230   0.80940   0.22980   Biso      1.000     C          -0.129605           
         C25       1.0000    0.38230   0.45720   0.90520   Biso      1.000     C          -0.130411           
         C26       1.0000    0.22880   0.87100   0.68460   Biso      1.000     C          0.015867  
         C27       1.0000    0.20250   0.19720   0.73860   Biso      1.000     C          0.078805  
         C28       1.0000    0.57990   0.41920   0.08830   Biso      1.000     C          -0.04627  
         C29       1.0000    0.29170   0.07020   0.25500   Biso      1.000     C          0.498812  
         C30       1.0000    0.62160   0.94480   0.12130   Biso      1.000     C          0.63731   
         C31       1.0000    0.32320   0.94480   0.62130   Biso      1.000     C          0.638124  
         C32       1.0000    0.79750   0.80280   0.26140   Biso      1.000     C          0.078805  
         C33       1.0000    0.54700   0.74740   0.28950   Biso      1.000     C          0.074698  
         C34       1.0000    0.07490   0.45720   0.40520   Biso      1.000     C          -0.12825999999999999          
         C35       1.0000    0.72790   0.61280   0.04950   Biso      1.000     C          0.094904  
         C36       1.0000    0.21710   0.13500   0.80070   Biso      1.000     C          -0.1466   
         C37       1.0000    0.32520   0.55160   0.50700   Biso      1.000     C          0.025638  
         C38       1.0000    0.08210   0.86500   0.69930   Biso      1.000     C          -0.146326           
         C39       1.0000    0.70830   0.92980   0.74500   Biso      1.000     C          0.498812  
         C40       1.0000    0.96410   0.92980   0.48870   Biso      1.000     C          0.49792200000000003           
         C41       1.0000    0.16070   0.58080   0.41170   Biso      1.000     C          -0.046979           
         C42       1.0000    0.11510   0.38720   0.45050   Biso      1.000     C          0.09237100000000001           
         C43       1.0000    0.77850   0.07020   0.75500   Biso      1.000     C          0.49647399999999997           
         C44       1.0000    0.96570   0.92980   0.98870   Biso      1.000     C          0.49785799999999997           
         C45       1.0000    0.37840   0.05520   0.87870   Biso      1.000     C          0.63731   
         C46       1.0000    0.66070   0.37040   0.03590   Biso      1.000     C          -0.065137           
         C47       1.0000    0.83930   0.41920   0.58830   Biso      1.000     C          -0.046981           
         C48       1.0000    0.35780   0.12900   0.81540   Biso      1.000     C          0.016245  
         C49       1.0000    0.61770   0.54280   0.09480   Biso      1.000     C          -0.130412           
         C50       1.0000    0.79960   0.25260   0.21050   Biso      1.000     C          0.075933  
         C51       1.0000    0.67480   0.44840   0.49300   Biso      1.000     C          0.025638  
         C52       1.0000    0.42010   0.58080   0.91170   Biso      1.000     C          -0.046271           
         C53       1.0000    0.03590   0.07020   0.51130   Biso      1.000     C          0.49792200000000003           
         C54       1.0000    0.77360   0.44840   0.99300   Biso      1.000     C          0.025702999999999997          
         C55       1.0000    0.78290   0.86500   0.19930   Biso      1.000     C          -0.146599           
         C56       1.0000    0.71290   0.19060   0.27020   Biso      1.000     C          -0.130937           
         H1        1.0000    0.96350   0.09800   0.33190   Biso      1.000     H          0.137878  
         H2        1.0000    0.53550   0.29540   0.68100   Biso      1.000     H          0.08934500000000001           
         H3        1.0000    0.94590   0.69580   0.55410   Biso      1.000     H          0.10127699999999999           
         H4        1.0000    0.03650   0.90200   0.66810   Biso      1.000     H          0.137878  
         H5        1.0000    0.41250   0.58360   0.54110   Biso      1.000     H          0.105602  
         H6        1.0000    0.38340   0.80920   0.72050   Biso      1.000     H          0.14413900000000002           
         H7        1.0000    0.25010   0.30420   0.94590   Biso      1.000     H          0.100084  
         H8        1.0000    0.86680   0.36960   0.61810   Biso      1.000     H          0.13572599999999999           
         H9        1.0000    0.74990   0.69580   0.05410   Biso      1.000     H          0.100084  
         H10       1.0000    0.49720   0.63040   0.88190   Biso      1.000     H          0.135766  
         H11       1.0000    0.42580   0.80920   0.22050   Biso      1.000     H          0.144021  
         H12       1.0000    0.13450   0.09800   0.83190   Biso      1.000     H          0.137878  
         H13       1.0000    0.10770   0.19960   0.72810   Biso      1.000     H          0.105815  
         H14       1.0000    0.82890   0.41640   0.95890   Biso      1.000     H          0.10603599999999999           
         H15       1.0000    0.58750   0.41640   0.45890   Biso      1.000     H          0.105602  
         H16       1.0000    0.61660   0.19080   0.27950   Biso      1.000     H          0.14413800000000002           
         H17       1.0000    0.75990   0.29540   0.18100   Biso      1.000     H          0.089055  
         H18       1.0000    0.86550   0.90200   0.16810   Biso      1.000     H          0.137878  
         H19       1.0000    0.98950   0.42200   0.36980   Biso      1.000     H          0.11930199999999999           
         H20       1.0000    0.01050   0.57800   0.63020   Biso      1.000     H          0.11930199999999999           
         H21       1.0000    0.43250   0.42200   0.86980   Biso      1.000     H          0.119778  
         H22       1.0000    0.46450   0.70460   0.31900   Biso      1.000     H          0.08934500000000001           
         H23       1.0000    0.13320   0.63040   0.38190   Biso      1.000     H          0.13572599999999999           
         H24       1.0000    0.89230   0.80040   0.27190   Biso      1.000     H          0.105815  
         H25       1.0000    0.50280   0.36960   0.11810   Biso      1.000     H          0.135766  
         H26       1.0000    0.05410   0.30420   0.44590   Biso      1.000     H          0.101276  
         H27       1.0000    0.57420   0.19080   0.77950   Biso      1.000     H          0.144021  
         H28       1.0000    0.56750   0.57800   0.13020   Biso      1.000     H          0.119778  
         H29       1.0000    0.17110   0.58360   0.04110   Biso      1.000     H          0.10603599999999999           
         H30       1.0000    0.90810   0.80040   0.77190   Biso      1.000     H          0.10629100000000001           
         H31       1.0000    0.24010   0.70460   0.81900   Biso      1.000     H          0.089055  
         H32       1.0000    0.09190   0.19960   0.22810   Biso      1.000     H          0.10629100000000001           
         N1        1.0000    0.06430   0.74640   0.80660   Biso      1.000     N          -0.181836           
         N2        1.0000    0.93570   0.25360   0.19340   Biso      1.000     N          -0.181836           
         N3        1.0000    0.19270   0.43160   0.00170   Biso      1.000     N          -0.173534           
         N4        1.0000    0.23890   0.43160   0.50170   Biso      1.000     N          -0.172423           
         N5        1.0000    0.80730   0.56840   0.99830   Biso      1.000     N          -0.173534           
         N6        1.0000    0.76110   0.56840   0.49830   Biso      1.000     N          -0.172421           
         N7        1.0000    0.31790   0.25360   0.69340   Biso      1.000     N          -0.18120899999999998          
         N8        1.0000    0.68210   0.74640   0.30660   Biso      1.000     N          -0.18120899999999998          
         O1        1.0000    0.52050   0.79560   0.50680   Biso      1.000     O          -0.650059           
         O2        1.0000    0.47950   0.20440   0.49320   Biso      1.000     O          -0.650059           
         O3        1.0000    0.49880   0.96080   0.12270   Biso      1.000     O          -0.679142           
         O4        1.0000    0.49880   0.16820   0.04600   Biso      1.000     O          -0.6669729999999999           
         O5        1.0000    0.83932   0.87324   0.51890   Biso      1.000     O          -0.578393           
         O6        1.0000    0.14960   0.11500   0.05850   Biso      1.000     O          -0.601807           
         O7        1.0000    0.32980   0.11940   0.19240   Biso      1.000     O          -0.602692           
         O8        1.0000    0.30410   0.12280   0.32490   Biso      1.000     O          -0.618758           
         O9        1.0000    0.96540   0.11500   0.55850   Biso      1.000     O          -0.601889           
         O10       1.0000    0.03392   0.87324   0.01890   Biso      1.000     O          -0.5782689999999999           
         O11       1.0000    0.53800   0.03920   0.37730   Biso      1.000     O          -0.679487           
         O12       1.0000    0.72540   0.98360   0.07330   Biso      1.000     O          -0.648393           
         O13       1.0000    0.74180   0.01640   0.42670   Biso      1.000     O          -0.648512           
         O14       1.0000    0.27460   0.01640   0.92670   Biso      1.000     O          -0.648393           
         O15       1.0000    0.27510   0.79560   0.00680   Biso      1.000     O          -0.64959  
         O16       1.0000    0.46200   0.96080   0.62270   Biso      1.000     O          -0.679487           
         O17       1.0000    0.69590   0.87720   0.67510   Biso      1.000     O          -0.618758           
         O18       1.0000    0.96608   0.12676   0.98110   Biso      1.000     O          -0.5782689999999999           
         O19       1.0000    0.33060   0.83180   0.45400   Biso      1.000     O          -0.667455           
         O20       1.0000    0.81870   0.12280   0.82490   Biso      1.000     O          -0.6175039999999999           
         O21       1.0000    0.21040   0.88060   0.30760   Biso      1.000     O          -0.601911           
         O22       1.0000    0.50120   0.03920   0.87730   Biso      1.000     O          -0.679142           
         O23       1.0000    0.25820   0.98360   0.57330   Biso      1.000     O          -0.648512           
         O24       1.0000    0.78960   0.11940   0.69240   Biso      1.000     O          -0.601911           
         O25       1.0000    0.85040   0.88500   0.94150   Biso      1.000     O          -0.601807           
         O26       1.0000    0.16068   0.12676   0.48110   Biso      1.000     O          -0.578393           
         O27       1.0000    0.67020   0.88060   0.80760   Biso      1.000     O          -0.602692           
         O28       1.0000    0.18130   0.87720   0.17510   Biso      1.000     O          -0.6175039999999999           
         O29       1.0000    0.72490   0.20440   0.99320   Biso      1.000     O          -0.64959  
         O30       1.0000    0.50120   0.83180   0.95400   Biso      1.000     O          -0.6669729999999999           
         O31       1.0000    0.03460   0.88500   0.44150   Biso      1.000     O          -0.601889           
         O32       1.0000    0.66940   0.16820   0.54600   Biso      1.000     O          -0.667455           
         Tb1       1.0000    0.30425   0.00916   0.43433   Biso      1.000     Tb          2.076712  
         Tb2       1.0000    0.70491   0.00916   0.93433   Biso      1.000     Tb          2.076291  
         Tb3       1.0000    0.69575   0.99084   0.56567   Biso      1.000     Tb          2.076712  
         Tb4       1.0000    0.29509   0.99084   0.06567   Biso      1.000     Tb          2.076291 