
##########################################################################
#               Crystallographic Information Format file
#               Produced by PyCifRW module
#
#  This is a CIF file.  CIF has been adopted by the International
#  Union of Crystallography as the standard for data archiving and
#  transmission.
#
#  For information on this file format, follow the CIF links at
#  http://www.iucr.org
##########################################################################

data_image0

_cell_length_a                          9.525
_cell_length_b                          12.0404
_cell_length_c                          16.865
_cell_angle_alpha                       96.5422
_cell_angle_beta                        90
_cell_angle_gamma                       113.3
_symmetry_space_group_name_H-M          'P 1'
_symmetry_int_tables_number             1
loop_
  _symmetry_equiv_pos_as_xyz
         'x, y, z' 
loop_
  _atom_site_label
  _atom_site_occupancy
  _atom_site_fract_x
  _atom_site_fract_y
  _atom_site_fract_z
  _atom_site_thermal_displace_type
  _atom_site_B_iso_or_equiv
  _atom_site_type_symbol
  _atom_site_charge
         Ag1       1.0000    0.72087   0.68268   0.91641   Biso      1.000     Ag          0.415071  
         Ag2       1.0000    0.27913   0.31732   0.08359   Biso      1.000     Ag          0.415071  
         Ag3       1.0000    0.03819   0.31732   0.58359   Biso      1.000     Ag          0.416054  
         Ag4       1.0000    0.96181   0.68268   0.41641   Biso      1.000     Ag          0.416054  
         C1        1.0000    0.03360   0.06940   0.51170   Biso      1.000     C          0.494278  
         C2        1.0000    0.52360   0.80940   0.73020   Biso      1.000     C          -0.137734           
         C3        1.0000    0.72900   0.61560   0.54780   Biso      1.000     C          0.085321  
         C4        1.0000    0.64400   0.87080   0.68490   Biso      1.000     C          0.023903  
         C5        1.0000    0.77810   0.07060   0.25550   Biso      1.000     C          0.486643  
         C6        1.0000    0.71420   0.19060   0.76980   Biso      1.000     C          -0.138573           
         C7        1.0000    0.80010   0.25140   0.71030   Biso      1.000     C          0.079794  
         C8        1.0000    0.96640   0.93060   0.48830   Biso      1.000     C          0.494278  
         C9        1.0000    0.07550   0.45620   0.90570   Biso      1.000     C          -0.125234           
         C10       1.0000    0.19990   0.74860   0.28970   Biso      1.000     C          0.079788  
         C11       1.0000    0.37820   0.05740   0.37850   Biso      1.000     C          0.585269  
         C12       1.0000    0.78340   0.86340   0.69920   Biso      1.000     C          -0.152939           
         C13       1.0000    0.32080   0.94260   0.12150   Biso      1.000     C          0.585727  
         C14       1.0000    0.32340   0.55080   0.00780   Biso      1.000     C          0.023412  
         C15       1.0000    0.00560   0.80280   0.26170   Biso      1.000     C          0.076758  
         C16       1.0000    0.20280   0.19720   0.23830   Biso      1.000     C          0.076843  
         C17       1.0000    0.27100   0.38440   0.45220   Biso      1.000     C          0.085321  
         C18       1.0000    0.96420   0.93060   0.98830   Biso      1.000     C          0.495005  
         C19       1.0000    0.45130   0.25140   0.21030   Biso      1.000     C          0.078891  
         C20       1.0000    0.47640   0.19060   0.26980   Biso      1.000     C          -0.137727           
         C21       1.0000    0.70920   0.37280   0.03640   Biso      1.000     C          -0.05985  
         C22       1.0000    0.03580   0.06940   0.01170   Biso      1.000     C          0.495006  
         C23       1.0000    0.22190   0.92940   0.74450   Biso      1.000     C          0.48663   
         C24       1.0000    0.29080   0.62720   0.96360   Biso      1.000     C          -0.059846           
         C25       1.0000    0.61930   0.54380   0.59430   Biso      1.000     C          -0.125954           
         C26       1.0000    0.28580   0.80940   0.23020   Biso      1.000     C          -0.138566           
         C27       1.0000    0.37260   0.76120   0.47540   Biso      1.000     C          0.587832  
         C28       1.0000    0.61140   0.23880   0.02460   Biso      1.000     C          0.588163  
         C29       1.0000    0.29250   0.07060   0.75550   Biso      1.000     C          0.488404  
         C30       1.0000    0.79720   0.80280   0.76170   Biso      1.000     C          0.076847  
         C31       1.0000    0.66360   0.37280   0.53640   Biso      1.000     C          -0.057479           
         C32       1.0000    0.62740   0.23880   0.52460   Biso      1.000     C          0.587832  
         C33       1.0000    0.77320   0.12920   0.81510   Biso      1.000     C          0.023761  
         C34       1.0000    0.83760   0.42140   0.08770   Biso      1.000     C          -0.051914           
         C35       1.0000    0.92000   0.13660   0.80080   Biso      1.000     C          -0.15291  
         C36       1.0000    0.62180   0.94260   0.62150   Biso      1.000     C          0.585277  
         C37       1.0000    0.70750   0.92940   0.24450   Biso      1.000     C          0.488425  
         C38       1.0000    0.11340   0.38440   0.95220   Biso      1.000     C          0.084383  
         C39       1.0000    0.58380   0.42140   0.58770   Biso      1.000     C          -0.052875           
         C40       1.0000    0.38070   0.45620   0.40570   Biso      1.000     C          -0.125955           
         C41       1.0000    0.16240   0.57860   0.91230   Biso      1.000     C          -0.051906           
         C42       1.0000    0.88660   0.61560   0.04780   Biso      1.000     C          0.084378  
         C43       1.0000    0.22740   0.55080   0.50780   Biso      1.000     C          0.023575  
         C44       1.0000    0.38860   0.76120   0.97540   Biso      1.000     C          0.588162  
         C45       1.0000    0.41620   0.57860   0.41230   Biso      1.000     C          -0.052874           
         C46       1.0000    0.92450   0.54380   0.09430   Biso      1.000     C          -0.12522  
         C47       1.0000    0.99440   0.19720   0.73830   Biso      1.000     C          0.076761  
         C48       1.0000    0.22680   0.87080   0.18490   Biso      1.000     C          0.02376   
         C49       1.0000    0.77260   0.44920   0.49220   Biso      1.000     C          0.023579  
         C50       1.0000    0.35600   0.12920   0.31510   Biso      1.000     C          0.023904  
         C51       1.0000    0.33640   0.62720   0.46360   Biso      1.000     C          -0.057474           
         C52       1.0000    0.54870   0.74860   0.78970   Biso      1.000     C          0.078897  
         C53       1.0000    0.67660   0.44920   0.99220   Biso      1.000     C          0.023416  
         C54       1.0000    0.21660   0.13660   0.30080   Biso      1.000     C          -0.152936           
         C55       1.0000    0.67920   0.05740   0.87850   Biso      1.000     C          0.585722  
         C56       1.0000    0.08000   0.86340   0.19920   Biso      1.000     C          -0.152909           
         Eu1       1.0000    0.29584   0.99100   0.56575   Biso      1.000     Eu          1.321005  
         Eu2       1.0000    0.70416   0.00900   0.43425   Biso      1.000     Eu          1.321006  
         Eu3       1.0000    0.69516   0.99100   0.06575   Biso      1.000     Eu          1.319889  
         Eu4       1.0000    0.30484   0.00900   0.93425   Biso      1.000     Eu          1.319888  
         H1        1.0000    0.42710   0.80880   0.72070   Biso      1.000     H          0.140865  
         H2        1.0000    0.61830   0.19120   0.77930   Biso      1.000     H          0.140991  
         H3        1.0000    0.24970   0.30160   0.44850   Biso      1.000     H          0.104828  
         H4        1.0000    0.86550   0.89820   0.66750   Biso      1.000     H          0.136506  
         H5        1.0000    0.94810   0.69840   0.05150   Biso      1.000     H          0.105382  
         H6        1.0000    0.86450   0.37160   0.11730   Biso      1.000     H          0.13151   
         H7        1.0000    0.24050   0.70700   0.31950   Biso      1.000     H          0.088077  
         H8        1.0000    0.53350   0.29300   0.18050   Biso      1.000     H          0.08809   
         H9        1.0000    0.40940   0.58380   0.04280   Biso      1.000     H          0.102913  
         H10       1.0000    0.46650   0.70700   0.81950   Biso      1.000     H          0.088089  
         H11       1.0000    0.49290   0.62840   0.38270   Biso      1.000     H          0.131364  
         H12       1.0000    0.43060   0.42140   0.36990   Biso      1.000     H          0.119334  
         H13       1.0000    0.50710   0.37160   0.61730   Biso      1.000     H          0.131365  
         H14       1.0000    0.00920   0.57860   0.13010   Biso      1.000     H          0.118617  
         H15       1.0000    0.75950   0.29300   0.68050   Biso      1.000     H          0.088076  
         H16       1.0000    0.03270   0.89820   0.16750   Biso      1.000     H          0.137055  
         H17       1.0000    0.57290   0.19120   0.27930   Biso      1.000     H          0.140865  
         H18       1.0000    0.09070   0.19880   0.72720   Biso      1.000     H          0.09937   
         H19       1.0000    0.99080   0.42140   0.86990   Biso      1.000     H          0.118619  
         H20       1.0000    0.90930   0.80120   0.27280   Biso      1.000     H          0.09937   
         H21       1.0000    0.96730   0.10180   0.83250   Biso      1.000     H          0.137054  
         H22       1.0000    0.17440   0.58380   0.54280   Biso      1.000     H          0.102191  
         H23       1.0000    0.38170   0.80880   0.22070   Biso      1.000     H          0.140991  
         H24       1.0000    0.75030   0.69840   0.55150   Biso      1.000     H          0.104828  
         H25       1.0000    0.10810   0.19880   0.22720   Biso      1.000     H          0.099494  
         H26       1.0000    0.59060   0.41620   0.95720   Biso      1.000     H          0.102913  
         H27       1.0000    0.05190   0.30160   0.94850   Biso      1.000     H          0.105382  
         H28       1.0000    0.13550   0.62840   0.88270   Biso      1.000     H          0.13151   
         H29       1.0000    0.82560   0.41620   0.45720   Biso      1.000     H          0.102191  
         H30       1.0000    0.56940   0.57860   0.63010   Biso      1.000     H          0.119335  
         H31       1.0000    0.89190   0.80120   0.77280   Biso      1.000     H          0.099494  
         H32       1.0000    0.13450   0.10180   0.33250   Biso      1.000     H          0.136506  
         N1        1.0000    0.19320   0.43160   0.50340   Biso      1.000     N          -0.176056           
         N2        1.0000    0.76160   0.56840   0.99660   Biso      1.000     N          -0.175085           
         N3        1.0000    0.80680   0.56840   0.49660   Biso      1.000     N          -0.176056           
         N4        1.0000    0.93580   0.25340   0.69330   Biso      1.000     N          -0.187652           
         N5        1.0000    0.06420   0.74660   0.30670   Biso      1.000     N          -0.187649           
         N6        1.0000    0.23840   0.43160   0.00340   Biso      1.000     N          -0.175085           
         N7        1.0000    0.31760   0.25340   0.19330   Biso      1.000     N          -0.18673  
         N8        1.0000    0.68240   0.74660   0.80670   Biso      1.000     N          -0.186732           
         O1        1.0000    0.47918   0.20656   0.99450   Biso      1.000     O          -0.585473           
         O2        1.0000    0.49910   0.04180   0.37800   Biso      1.000     O          -0.571256           
         O3        1.0000    0.25370   0.98020   0.07360   Biso      1.000     O          -0.564367           
         O4        1.0000    0.78980   0.12040   0.19340   Biso      1.000     O          -0.465758           
         O5        1.0000    0.33060   0.12040   0.69340   Biso      1.000     O          -0.466753           
         O6        1.0000    0.66850   0.17100   0.04730   Biso      1.000     O          -0.546958           
         O7        1.0000    0.69570   0.87680   0.17510   Biso      1.000     O          -0.475486           
         O8        1.0000    0.14785   0.11430   0.55990   Biso      1.000     O          -0.527631           
         O9        1.0000    0.49750   0.82900   0.45270   Biso      1.000     O          -0.547236           
         O10       1.0000    0.72738   0.20656   0.49450   Biso      1.000     O          -0.586001           
         O11       1.0000    0.50250   0.17100   0.54730   Biso      1.000     O          -0.547234           
         O12       1.0000    0.74630   0.01980   0.92640   Biso      1.000     O          -0.564365           
         O13       1.0000    0.03298   0.87296   0.51780   Biso      1.000     O          -0.475069           
         O14       1.0000    0.45730   0.95820   0.12200   Biso      1.000     O          -0.571155           
         O15       1.0000    0.96645   0.11430   0.05990   Biso      1.000     O          -0.528172           
         O16       1.0000    0.52082   0.79344   0.00550   Biso      1.000     O          -0.58547  
         O17       1.0000    0.33150   0.82900   0.95270   Biso      1.000     O          -0.546956           
         O18       1.0000    0.16002   0.12704   0.98220   Biso      1.000     O          -0.475093           
         O19       1.0000    0.96702   0.12704   0.48220   Biso      1.000     O          -0.47507  
         O20       1.0000    0.81890   0.12320   0.32490   Biso      1.000     O          -0.475064           
         O21       1.0000    0.50090   0.95820   0.62200   Biso      1.000     O          -0.571247           
         O22       1.0000    0.85215   0.88570   0.44010   Biso      1.000     O          -0.527631           
         O23       1.0000    0.21020   0.87960   0.80660   Biso      1.000     O          -0.465764           
         O24       1.0000    0.27262   0.79344   0.50550   Biso      1.000     O          -0.586005           
         O25       1.0000    0.54270   0.04180   0.87800   Biso      1.000     O          -0.571135           
         O26       1.0000    0.03355   0.88570   0.94010   Biso      1.000     O          -0.528172           
         O27       1.0000    0.72650   0.98020   0.57360   Biso      1.000     O          -0.564189           
         O28       1.0000    0.83998   0.87296   0.01780   Biso      1.000     O          -0.475092           
         O29       1.0000    0.66940   0.87960   0.30660   Biso      1.000     O          -0.466747           
         O30       1.0000    0.30430   0.12320   0.82490   Biso      1.000     O          -0.475466           
         O31       1.0000    0.18110   0.87680   0.67510   Biso      1.000     O          -0.475045           
         O32       1.0000    0.27350   0.01980   0.42640   Biso      1.000     O          -0.564178 