
##########################################################################
#               Crystallographic Information Format file
#               Produced by PyCifRW module
#
#  This is a CIF file.  CIF has been adopted by the International
#  Union of Crystallography as the standard for data archiving and
#  transmission.
#
#  For information on this file format, follow the CIF links at
#  http://www.iucr.org
##########################################################################

data_image0

_cell_length_a                          9.5164
_cell_length_b                          12.0447
_cell_length_c                          16.828
_cell_angle_alpha                       96.507
_cell_angle_beta                        90
_cell_angle_gamma                       113.269
_symmetry_space_group_name_H-M          'P 1'
_symmetry_int_tables_number             1
loop_
  _symmetry_equiv_pos_as_xyz
         'x, y, z' 
loop_
  _atom_site_label
  _atom_site_occupancy
  _atom_site_fract_x
  _atom_site_fract_y
  _atom_site_fract_z
  _atom_site_thermal_displace_type
  _atom_site_B_iso_or_equiv
  _atom_site_type_symbol
  _atom_site_charge
         Ag1       1.0000    0.03825   0.31784   0.58332   Biso      1.000     Ag          0.33532399999999996           
         Ag2       1.0000    0.27959   0.31784   0.08332   Biso      1.000     Ag          0.335121  
         Ag3       1.0000    0.72041   0.68216   0.91668   Biso      1.000     Ag          0.335121  
         Ag4       1.0000    0.96175   0.68216   0.41668   Biso      1.000     Ag          0.33532399999999996           
         C1        1.0000    0.07560   0.45620   0.90590   Biso      1.000     C          -0.126477           
         C2        1.0000    0.66100   0.37040   0.53640   Biso      1.000     C          -0.065737           
         C3        1.0000    0.38920   0.76220   0.97560   Biso      1.000     C          0.645314  
         C4        1.0000    0.61940   0.54380   0.59410   Biso      1.000     C          -0.128991           
         C5        1.0000    0.78400   0.86420   0.69900   Biso      1.000     C          -0.147282           
         C6        1.0000    0.79990   0.25240   0.71030   Biso      1.000     C          0.07985700000000001           
         C7        1.0000    0.52320   0.80900   0.72950   Biso      1.000     C          -0.133995           
         C8        1.0000    0.83840   0.42080   0.08810   Biso      1.000     C          -0.046027           
         C9        1.0000    0.16160   0.57920   0.91190   Biso      1.000     C          -0.046019           
         C10       1.0000    0.21600   0.13580   0.30100   Biso      1.000     C          -0.147281           
         C11       1.0000    0.99340   0.19700   0.73810   Biso      1.000     C          0.076007  
         C12       1.0000    0.92440   0.54380   0.09410   Biso      1.000     C          -0.126469           
         C13       1.0000    0.37300   0.76220   0.47560   Biso      1.000     C          0.64399   
         C14       1.0000    0.35680   0.12980   0.31520   Biso      1.000     C          0.015038999999999999          
         C15       1.0000    0.71420   0.19100   0.77050   Biso      1.000     C          -0.135721           
         C16       1.0000    0.32450   0.55160   0.00760   Biso      1.000     C          0.023976  
         C17       1.0000    0.61080   0.23780   0.02440   Biso      1.000     C          0.645314  
         C18       1.0000    0.96410   0.93080   0.98840   Biso      1.000     C          0.49772   
         C19       1.0000    0.79640   0.80300   0.76190   Biso      1.000     C          0.078028  
         C20       1.0000    0.11460   0.38580   0.95150   Biso      1.000     C          0.090323  
         C21       1.0000    0.72880   0.61420   0.54850   Biso      1.000     C          0.091937  
         C22       1.0000    0.08020   0.86420   0.19900   Biso      1.000     C          -0.14521199999999998          
         C23       1.0000    0.67770   0.05640   0.87860   Biso      1.000     C          0.635858  
         C24       1.0000    0.77300   0.12980   0.81520   Biso      1.000     C          0.015113999999999999          
         C25       1.0000    0.03330   0.06920   0.51160   Biso      1.000     C          0.498356  
         C26       1.0000    0.03590   0.06920   0.01160   Biso      1.000     C          0.49772   
         C27       1.0000    0.32230   0.94360   0.12140   Biso      1.000     C          0.635858  
         C28       1.0000    0.58240   0.42080   0.58810   Biso      1.000     C          -0.045837           
         C29       1.0000    0.27120   0.38580   0.45150   Biso      1.000     C          0.091924  
         C30       1.0000    0.45250   0.25240   0.21030   Biso      1.000     C          0.07935299999999999           
         C31       1.0000    0.28580   0.80900   0.22950   Biso      1.000     C          -0.135722           
         C32       1.0000    0.70940   0.37040   0.03640   Biso      1.000     C          -0.06604700000000001          
         C33       1.0000    0.33900   0.62960   0.46360   Biso      1.000     C          -0.065736           
         C34       1.0000    0.54750   0.74760   0.78970   Biso      1.000     C          0.079354  
         C35       1.0000    0.64320   0.87020   0.68480   Biso      1.000     C          0.015046  
         C36       1.0000    0.88540   0.61420   0.04850   Biso      1.000     C          0.090322  
         C37       1.0000    0.77810   0.07040   0.25540   Biso      1.000     C          0.497388  
         C38       1.0000    0.00660   0.80300   0.26190   Biso      1.000     C          0.07600900000000001           
         C39       1.0000    0.47680   0.19100   0.27050   Biso      1.000     C          -0.133987           
         C40       1.0000    0.96670   0.93080   0.48840   Biso      1.000     C          0.498356  
         C41       1.0000    0.70770   0.92960   0.24460   Biso      1.000     C          0.49786199999999997           
         C42       1.0000    0.41760   0.57920   0.41190   Biso      1.000     C          -0.045846           
         C43       1.0000    0.29060   0.62960   0.96360   Biso      1.000     C          -0.066048           
         C44       1.0000    0.91980   0.13580   0.80100   Biso      1.000     C          -0.145209           
         C45       1.0000    0.20010   0.74760   0.28970   Biso      1.000     C          0.079858  
         C46       1.0000    0.38060   0.45620   0.40590   Biso      1.000     C          -0.128971           
         C47       1.0000    0.22190   0.92960   0.74460   Biso      1.000     C          0.497388  
         C48       1.0000    0.37870   0.05640   0.37860   Biso      1.000     C          0.634084  
         C49       1.0000    0.67550   0.44840   0.99240   Biso      1.000     C          0.023975  
         C50       1.0000    0.20360   0.19700   0.23810   Biso      1.000     C          0.078027  
         C51       1.0000    0.62130   0.94360   0.62140   Biso      1.000     C          0.634083  
         C52       1.0000    0.62700   0.23780   0.52440   Biso      1.000     C          0.64399   
         C53       1.0000    0.22700   0.87020   0.18480   Biso      1.000     C          0.015116  
         C54       1.0000    0.29230   0.07040   0.75540   Biso      1.000     C          0.49786199999999997           
         C55       1.0000    0.77290   0.44840   0.49240   Biso      1.000     C          0.025921  
         C56       1.0000    0.22710   0.55160   0.50760   Biso      1.000     C          0.025921  
         Gd1       1.0000    0.30451   0.00908   0.93432   Biso      1.000     Gd          2.043043  
         Gd2       1.0000    0.29543   0.99092   0.56568   Biso      1.000     Gd          2.043045  
         Gd3       1.0000    0.70457   0.00908   0.43432   Biso      1.000     Gd          2.043045  
         Gd4       1.0000    0.69549   0.99092   0.06568   Biso      1.000     Gd          2.043043  
         H1        1.0000    0.58890   0.41600   0.95790   Biso      1.000     H          0.10594   
         H2        1.0000    0.86620   0.37180   0.11830   Biso      1.000     H          0.133627  
         H3        1.0000    0.46490   0.70520   0.81920   Biso      1.000     H          0.08795599999999999           
         H4        1.0000    0.61820   0.19140   0.78020   Biso      1.000     H          0.144171  
         H5        1.0000    0.38180   0.80860   0.21980   Biso      1.000     H          0.144171  
         H6        1.0000    0.13380   0.62820   0.88170   Biso      1.000     H          0.133627  
         H7        1.0000    0.13350   0.10000   0.33230   Biso      1.000     H          0.14027799999999999           
         H8        1.0000    0.05370   0.30280   0.94730   Biso      1.000     H          0.10299900000000001           
         H9        1.0000    0.10890   0.19860   0.22670   Biso      1.000     H          0.10393800000000002           
         H10       1.0000    0.56930   0.57900   0.62950   Biso      1.000     H          0.118397  
         H11       1.0000    0.43070   0.42100   0.37050   Biso      1.000     H          0.118396  
         H12       1.0000    0.42680   0.80860   0.71980   Biso      1.000     H          0.14363099999999998           
         H13       1.0000    0.75090   0.69720   0.55270   Biso      1.000     H          0.102904  
         H14       1.0000    0.03350   0.90000   0.16770   Biso      1.000     H          0.139796  
         H15       1.0000    0.24910   0.30280   0.44730   Biso      1.000     H          0.102905  
         H16       1.0000    0.50560   0.37180   0.61830   Biso      1.000     H          0.133608  
         H17       1.0000    0.89110   0.80140   0.77330   Biso      1.000     H          0.10393800000000002           
         H18       1.0000    0.96650   0.10000   0.83230   Biso      1.000     H          0.139796  
         H19       1.0000    0.17290   0.58400   0.54210   Biso      1.000     H          0.105091  
         H20       1.0000    0.49440   0.62820   0.38170   Biso      1.000     H          0.133608  
         H21       1.0000    0.91030   0.80140   0.27330   Biso      1.000     H          0.10463399999999999           
         H22       1.0000    0.94630   0.69720   0.05270   Biso      1.000     H          0.10299900000000001           
         H23       1.0000    0.41110   0.58400   0.04210   Biso      1.000     H          0.10594   
         H24       1.0000    0.00970   0.57900   0.12950   Biso      1.000     H          0.11738399999999999           
         H25       1.0000    0.57320   0.19140   0.28020   Biso      1.000     H          0.14363   
         H26       1.0000    0.99030   0.42100   0.87050   Biso      1.000     H          0.11738399999999999           
         H27       1.0000    0.24030   0.70520   0.31920   Biso      1.000     H          0.0881    
         H28       1.0000    0.82710   0.41600   0.45790   Biso      1.000     H          0.105091  
         H29       1.0000    0.53510   0.29480   0.18080   Biso      1.000     H          0.08795599999999999           
         H30       1.0000    0.08970   0.19860   0.72670   Biso      1.000     H          0.10463399999999999           
         H31       1.0000    0.86650   0.90000   0.66770   Biso      1.000     H          0.14027799999999999           
         H32       1.0000    0.75970   0.29480   0.68080   Biso      1.000     H          0.0881    
         N1        1.0000    0.19370   0.43180   0.50250   Biso      1.000     N          -0.172777           
         N2        1.0000    0.23810   0.43180   0.00250   Biso      1.000     N          -0.17149  
         N3        1.0000    0.68150   0.74660   0.80680   Biso      1.000     N          -0.177821           
         N4        1.0000    0.31850   0.25340   0.19320   Biso      1.000     N          -0.177821           
         N5        1.0000    0.80630   0.56820   0.49750   Biso      1.000     N          -0.172779           
         N6        1.0000    0.76190   0.56820   0.99750   Biso      1.000     N          -0.17149  
         N7        1.0000    0.93490   0.25340   0.69320   Biso      1.000     N          -0.177728           
         N8        1.0000    0.06510   0.74660   0.30680   Biso      1.000     N          -0.177728           
         O1        1.0000    0.72650   0.20540   0.49440   Biso      1.000     O          -0.646259           
         O2        1.0000    0.27350   0.79460   0.50560   Biso      1.000     O          -0.646259           
         O3        1.0000    0.45970   0.95940   0.12220   Biso      1.000     O          -0.6680520000000001           
         O4        1.0000    0.16020   0.12740   0.98220   Biso      1.000     O          -0.568637           
         O5        1.0000    0.03360   0.88500   0.94060   Biso      1.000     O          -0.601169           
         O6        1.0000    0.14860   0.11500   0.55940   Biso      1.000     O          -0.601701           
         O7        1.0000    0.52110   0.79460   0.00560   Biso      1.000     O          -0.646357           
         O8        1.0000    0.03280   0.87260   0.51780   Biso      1.000     O          -0.568805           
         O9        1.0000    0.33090   0.83000   0.95360   Biso      1.000     O          -0.661978           
         O10       1.0000    0.49910   0.83000   0.45360   Biso      1.000     O          -0.661024           
         O11       1.0000    0.49970   0.95940   0.62220   Biso      1.000     O          -0.667134           
         O12       1.0000    0.69610   0.87700   0.17500   Biso      1.000     O          -0.6119979999999999           
         O13       1.0000    0.83980   0.87260   0.01780   Biso      1.000     O          -0.568637           
         O14       1.0000    0.50090   0.17000   0.54640   Biso      1.000     O          -0.661024           
         O15       1.0000    0.66910   0.17000   0.04640   Biso      1.000     O          -0.661978           
         O16       1.0000    0.30390   0.12300   0.82500   Biso      1.000     O          -0.6119979999999999           
         O17       1.0000    0.25570   0.98180   0.07340   Biso      1.000     O          -0.649628           
         O18       1.0000    0.96640   0.11500   0.05940   Biso      1.000     O          -0.601169           
         O19       1.0000    0.21170   0.88040   0.80710   Biso      1.000     O          -0.600037           
         O20       1.0000    0.78830   0.11960   0.19290   Biso      1.000     O          -0.600037           
         O21       1.0000    0.27390   0.01820   0.42660   Biso      1.000     O          -0.648795           
         O22       1.0000    0.85140   0.88500   0.44060   Biso      1.000     O          -0.601701           
         O23       1.0000    0.18090   0.87700   0.67500   Biso      1.000     O          -0.611896           
         O24       1.0000    0.72610   0.98180   0.57340   Biso      1.000     O          -0.648795           
         O25       1.0000    0.47890   0.20540   0.99440   Biso      1.000     O          -0.646357           
         O26       1.0000    0.74430   0.01820   0.92660   Biso      1.000     O          -0.649628           
         O27       1.0000    0.50030   0.04060   0.37780   Biso      1.000     O          -0.667135           
         O28       1.0000    0.66870   0.88040   0.30710   Biso      1.000     O          -0.6005149999999999           
         O29       1.0000    0.81910   0.12300   0.32500   Biso      1.000     O          -0.611896           
         O30       1.0000    0.54030   0.04060   0.87780   Biso      1.000     O          -0.6680520000000001           
         O31       1.0000    0.96720   0.12740   0.48220   Biso      1.000     O          -0.568805           
         O32       1.0000    0.33130   0.11960   0.69290   Biso      1.000     O          -0.6005149999999999 