
##########################################################################
#               Crystallographic Information Format file
#               Produced by PyCifRW module
#
#  This is a CIF file.  CIF has been adopted by the International
#  Union of Crystallography as the standard for data archiving and
#  transmission.
#
#  For information on this file format, follow the CIF links at
#  http://www.iucr.org
##########################################################################

data_image0

_cell_length_a                          9.446
_cell_length_b                          12.0055
_cell_length_c                          16.685
_cell_angle_alpha                       96.2751
_cell_angle_beta                        90
_cell_angle_gamma                       113.166
_symmetry_space_group_name_H-M          'P 1'
_symmetry_int_tables_number             1
loop_
  _symmetry_equiv_pos_as_xyz
         'x, y, z' 
loop_
  _atom_site_label
  _atom_site_occupancy
  _atom_site_fract_x
  _atom_site_fract_y
  _atom_site_fract_z
  _atom_site_thermal_displace_type
  _atom_site_B_iso_or_equiv
  _atom_site_type_symbol
  _atom_site_charge
         Ag1       1.0000    0.71713   0.68214   0.41882   Biso      1.000     Ag          0.328753  
         Ag2       1.0000    0.03499   0.31786   0.08118   Biso      1.000     Ag          0.328876  
         Ag3       1.0000    0.28287   0.31786   0.58118   Biso      1.000     Ag          0.328753  
         Ag4       1.0000    0.96501   0.68214   0.91882   Biso      1.000     Ag          0.328877  
         C1        1.0000    0.71060   0.19160   0.27060   Biso      1.000     C          -0.135652           
         C2        1.0000    0.32830   0.55300   0.50680   Biso      1.000     C          0.023425  
         C3        1.0000    0.29170   0.63240   0.46330   Biso      1.000     C          -0.07319099999999999          
         C4        1.0000    0.65930   0.36760   0.03670   Biso      1.000     C          -0.073632           
         C5        1.0000    0.67170   0.44700   0.49320   Biso      1.000     C          0.023425  
         C6        1.0000    0.92570   0.54100   0.59620   Biso      1.000     C          -0.127315           
         C7        1.0000    0.70830   0.36760   0.53670   Biso      1.000     C          -0.073192           
         C8        1.0000    0.20360   0.19620   0.73790   Biso      1.000     C          0.077365  
         C9        1.0000    0.38470   0.45900   0.90380   Biso      1.000     C          -0.127906           
         C10       1.0000    0.32700   0.94780   0.62110   Biso      1.000     C          0.62195   
         C11       1.0000    0.34070   0.63240   0.96330   Biso      1.000     C          -0.073633           
         C12       1.0000    0.28940   0.80840   0.72940   Biso      1.000     C          -0.135652           
         C13       1.0000    0.88160   0.61020   0.54940   Biso      1.000     C          0.093843  
         C14       1.0000    0.11840   0.38980   0.45060   Biso      1.000     C          0.09383999999999999           
         C15       1.0000    0.37920   0.05220   0.87890   Biso      1.000     C          0.623532  
         C16       1.0000    0.57790   0.41780   0.08790   Biso      1.000     C          -0.050157           
         C17       1.0000    0.54340   0.74660   0.28880   Biso      1.000     C          0.078325  
         C18       1.0000    0.96470   0.93120   0.98930   Biso      1.000     C          0.48313   
         C19       1.0000    0.35900   0.12840   0.81550   Biso      1.000     C          0.011593000000000001          
         C20       1.0000    0.62080   0.94780   0.12110   Biso      1.000     C          0.623532  
         C21       1.0000    0.83990   0.41780   0.58790   Biso      1.000     C          -0.050791           
         C22       1.0000    0.21710   0.13380   0.79990   Biso      1.000     C          -0.150687           
         C23       1.0000    0.77790   0.06960   0.75480   Biso      1.000     C          0.48199200000000003           
         C24       1.0000    0.96650   0.93120   0.48930   Biso      1.000     C          0.484617  
         C25       1.0000    0.48100   0.19160   0.77060   Biso      1.000     C          -0.135743           
         C26       1.0000    0.76940   0.12840   0.31550   Biso      1.000     C          0.010104  
         C27       1.0000    0.03530   0.06880   0.01070   Biso      1.000     C          0.483129  
         C28       1.0000    0.64100   0.87160   0.18450   Biso      1.000     C          0.011593000000000001          
         C29       1.0000    0.79640   0.80380   0.26210   Biso      1.000     C          0.077365  
         C30       1.0000    0.27140   0.38980   0.95060   Biso      1.000     C          0.09455   
         C31       1.0000    0.45660   0.25340   0.71120   Biso      1.000     C          0.078332  
         C32       1.0000    0.00740   0.80380   0.76210   Biso      1.000     C          0.07724099999999999           
         C33       1.0000    0.67300   0.05220   0.37890   Biso      1.000     C          0.62195   
         C34       1.0000    0.91670   0.13380   0.29990   Biso      1.000     C          -0.14844200000000002          
         C35       1.0000    0.42210   0.58220   0.91210   Biso      1.000     C          -0.050151           
         C36       1.0000    0.38940   0.76540   0.47600   Biso      1.000     C          0.624504  
         C37       1.0000    0.23060   0.87160   0.68450   Biso      1.000     C          0.010104  
         C38       1.0000    0.99260   0.19620   0.23790   Biso      1.000     C          0.07724500000000001           
         C39       1.0000    0.70830   0.93040   0.74520   Biso      1.000     C          0.48216099999999995           
         C40       1.0000    0.22470   0.55300   0.00680   Biso      1.000     C          0.02478   
         C41       1.0000    0.22210   0.93040   0.24520   Biso      1.000     C          0.48199200000000003           
         C42       1.0000    0.37600   0.76540   0.97600   Biso      1.000     C          0.625324  
         C43       1.0000    0.72860   0.61020   0.04940   Biso      1.000     C          0.094544  
         C44       1.0000    0.29170   0.06960   0.25480   Biso      1.000     C          0.48216099999999995           
         C45       1.0000    0.61530   0.54100   0.09620   Biso      1.000     C          -0.127896           
         C46       1.0000    0.16010   0.58220   0.41210   Biso      1.000     C          -0.050797           
         C47       1.0000    0.78290   0.86620   0.20010   Biso      1.000     C          -0.150687           
         C48       1.0000    0.20320   0.74660   0.78880   Biso      1.000     C          0.07891000000000001           
         C49       1.0000    0.03350   0.06880   0.51070   Biso      1.000     C          0.484617  
         C50       1.0000    0.07430   0.45900   0.40380   Biso      1.000     C          -0.127307           
         C51       1.0000    0.08330   0.86620   0.70010   Biso      1.000     C          -0.14843800000000001          
         C52       1.0000    0.62400   0.23460   0.02400   Biso      1.000     C          0.625324  
         C53       1.0000    0.51900   0.80840   0.22940   Biso      1.000     C          -0.135736           
         C54       1.0000    0.61060   0.23460   0.52400   Biso      1.000     C          0.624504  
         C55       1.0000    0.77530   0.44700   0.99320   Biso      1.000     C          0.02478   
         C56       1.0000    0.79680   0.25340   0.21120   Biso      1.000     C          0.07891000000000001           
         H1        1.0000    0.83100   0.41520   0.95860   Biso      1.000     H          0.103449  
         H2        1.0000    0.49810   0.36760   0.11660   Biso      1.000     H          0.131833  
         H3        1.0000    0.08990   0.19800   0.22680   Biso      1.000     H          0.10480199999999999           
         H4        1.0000    0.98900   0.42340   0.36780   Biso      1.000     H          0.123625  
         H5        1.0000    0.42170   0.80760   0.21950   Biso      1.000     H          0.142473  
         H6        1.0000    0.24320   0.70280   0.81770   Biso      1.000     H          0.08698600000000001           
         H7        1.0000    0.13340   0.09600   0.83070   Biso      1.000     H          0.137148  
         H8        1.0000    0.13050   0.63240   0.38340   Biso      1.000     H          0.13229200000000002           
         H9        1.0000    0.61410   0.19240   0.28050   Biso      1.000     H          0.141713  
         H10       1.0000    0.57830   0.19240   0.78050   Biso      1.000     H          0.142474  
         H11       1.0000    0.58420   0.41520   0.45860   Biso      1.000     H          0.10343499999999999           
         H12       1.0000    0.75080   0.69340   0.05300   Biso      1.000     H          0.0954    
         H13       1.0000    0.86660   0.90400   0.16930   Biso      1.000     H          0.137148  
         H14       1.0000    0.10810   0.19800   0.72680   Biso      1.000     H          0.104957  
         H15       1.0000    0.24920   0.30660   0.94700   Biso      1.000     H          0.0954    
         H16       1.0000    0.01100   0.57660   0.63220   Biso      1.000     H          0.123625  
         H17       1.0000    0.96260   0.09600   0.33070   Biso      1.000     H          0.136714  
         H18       1.0000    0.56560   0.57660   0.13220   Biso      1.000     H          0.123956  
         H19       1.0000    0.41580   0.58480   0.54140   Biso      1.000     H          0.10343499999999999           
         H20       1.0000    0.89190   0.80200   0.27320   Biso      1.000     H          0.104957  
         H21       1.0000    0.16900   0.58480   0.04140   Biso      1.000     H          0.103449  
         H22       1.0000    0.94260   0.69340   0.55300   Biso      1.000     H          0.09599400000000001           
         H23       1.0000    0.75680   0.29720   0.18230   Biso      1.000     H          0.08698600000000001           
         H24       1.0000    0.03740   0.90400   0.66930   Biso      1.000     H          0.136714  
         H25       1.0000    0.43440   0.42340   0.86780   Biso      1.000     H          0.123956  
         H26       1.0000    0.38590   0.80760   0.71950   Biso      1.000     H          0.141713  
         H27       1.0000    0.05740   0.30660   0.44700   Biso      1.000     H          0.09599400000000001           
         H28       1.0000    0.91010   0.80200   0.77320   Biso      1.000     H          0.10480199999999999           
         H29       1.0000    0.45960   0.70280   0.31770   Biso      1.000     H          0.08731799999999999           
         H30       1.0000    0.50190   0.63240   0.88340   Biso      1.000     H          0.131832  
         H31       1.0000    0.54040   0.29720   0.68230   Biso      1.000     H          0.08731799999999999           
         H32       1.0000    0.86950   0.36760   0.61660   Biso      1.000     H          0.13229100000000002           
         N1        1.0000    0.19130   0.43360   0.00050   Biso      1.000     N          -0.16791199999999998          
         N2        1.0000    0.06720   0.74560   0.80720   Biso      1.000     N          -0.18429500000000001          
         N3        1.0000    0.75770   0.56640   0.49950   Biso      1.000     N          -0.166823           
         N4        1.0000    0.67840   0.74560   0.30720   Biso      1.000     N          -0.18473699999999998          
         N5        1.0000    0.24230   0.43360   0.50050   Biso      1.000     N          -0.166823           
         N6        1.0000    0.93280   0.25440   0.19280   Biso      1.000     N          -0.18429500000000001          
         N7        1.0000    0.80870   0.56640   0.99950   Biso      1.000     N          -0.16791099999999998          
         N8        1.0000    0.32160   0.25440   0.69280   Biso      1.000     N          -0.184738           
         O1        1.0000    0.83790   0.87260   0.51940   Biso      1.000     O          -0.544351           
         O2        1.0000    0.27560   0.01420   0.92660   Biso      1.000     O          -0.5986899999999999           
         O3        1.0000    0.73860   0.01420   0.42660   Biso      1.000     O          -0.5984970000000001           
         O4        1.0000    0.49730   0.96320   0.12240   Biso      1.000     O          -0.621966           
         O5        1.0000    0.53410   0.03680   0.37760   Biso      1.000     O          -0.620766           
         O6        1.0000    0.18150   0.87680   0.17420   Biso      1.000     O          -0.577058           
         O7        1.0000    0.32880   0.11920   0.19160   Biso      1.000     O          -0.55786  
         O8        1.0000    0.03560   0.88480   0.44220   Biso      1.000     O          -0.546658           
         O9        1.0000    0.32900   0.83320   0.45420   Biso      1.000     O          -0.604888           
         O10       1.0000    0.15080   0.11520   0.05780   Biso      1.000     O          -0.545722           
         O11       1.0000    0.96530   0.12740   0.98060   Biso      1.000     O          -0.5431560000000001           
         O12       1.0000    0.79040   0.11920   0.69160   Biso      1.000     O          -0.557416           
         O13       1.0000    0.20960   0.88080   0.30840   Biso      1.000     O          -0.557416           
         O14       1.0000    0.50420   0.83320   0.95420   Biso      1.000     O          -0.604748           
         O15       1.0000    0.50270   0.03680   0.87760   Biso      1.000     O          -0.621965           
         O16       1.0000    0.81850   0.12320   0.82580   Biso      1.000     O          -0.577058           
         O17       1.0000    0.69530   0.87680   0.67420   Biso      1.000     O          -0.5766899999999999           
         O18       1.0000    0.47830   0.20100   0.49300   Biso      1.000     O          -0.5956   
         O19       1.0000    0.16210   0.12740   0.48060   Biso      1.000     O          -0.544351           
         O20       1.0000    0.49580   0.16680   0.04580   Biso      1.000     O          -0.604748           
         O21       1.0000    0.03470   0.87260   0.01940   Biso      1.000     O          -0.5431560000000001           
         O22       1.0000    0.27730   0.79900   0.00700   Biso      1.000     O          -0.5965159999999999           
         O23       1.0000    0.30470   0.12320   0.32580   Biso      1.000     O          -0.5766899999999999           
         O24       1.0000    0.72270   0.20100   0.99300   Biso      1.000     O          -0.5965159999999999           
         O25       1.0000    0.26140   0.98580   0.57340   Biso      1.000     O          -0.5984970000000001           
         O26       1.0000    0.96440   0.11520   0.55780   Biso      1.000     O          -0.546658           
         O27       1.0000    0.67100   0.16680   0.54580   Biso      1.000     O          -0.604888           
         O28       1.0000    0.46590   0.96320   0.62240   Biso      1.000     O          -0.620765           
         O29       1.0000    0.84920   0.88480   0.94220   Biso      1.000     O          -0.545722           
         O30       1.0000    0.52170   0.79900   0.50700   Biso      1.000     O          -0.5956   
         O31       1.0000    0.72440   0.98580   0.07340   Biso      1.000     O          -0.5986899999999999           
         O32       1.0000    0.67120   0.88080   0.80840   Biso      1.000     O          -0.55786  
         Y1        1.0000    0.29406   0.99100   0.06596   Biso      1.000     Y          1.780009  
         Y2        1.0000    0.69694   0.99100   0.56596   Biso      1.000     Y          1.780773  
         Y3        1.0000    0.70594   0.00900   0.93404   Biso      1.000     Y          1.780009  
         Y4        1.0000    0.30306   0.00900   0.43404   Biso      1.000     Y          1.780774 