
##########################################################################
#               Crystallographic Information Format file
#               Produced by PyCifRW module
#
#  This is a CIF file.  CIF has been adopted by the International
#  Union of Crystallography as the standard for data archiving and
#  transmission.
#
#  For information on this file format, follow the CIF links at
#  http://www.iucr.org
##########################################################################

data_image0

_cell_length_a                          9.378
_cell_length_b                          11.9991
_cell_length_c                          16.508
_cell_angle_alpha                       96.1973
_cell_angle_beta                        90
_cell_angle_gamma                       113.003
_symmetry_space_group_name_H-M          'P 1'
_symmetry_int_tables_number             1
loop_
  _symmetry_equiv_pos_as_xyz
         'x, y, z' 
loop_
  _atom_site_label
  _atom_site_occupancy
  _atom_site_fract_x
  _atom_site_fract_y
  _atom_site_fract_z
  _atom_site_thermal_displace_type
  _atom_site_B_iso_or_equiv
  _atom_site_type_symbol
  _atom_site_charge
         Ag1       1.0000    0.53379   0.31804   0.57925   Biso      1.000     Ag          0.408378  
         Ag2       1.0000    0.21575   0.68196   0.92075   Biso      1.000     Ag          0.408453  
         Ag3       1.0000    0.78425   0.31804   0.07925   Biso      1.000     Ag          0.408453  
         Ag4       1.0000    0.46621   0.68196   0.42075   Biso      1.000     Ag          0.408376  
         C1        1.0000    0.82780   0.55320   0.00540   Biso      1.000     C          0.017635  
         C2        1.0000    0.82980   0.94760   0.12120   Biso      1.000     C          0.581563  
         C3        1.0000    0.11300   0.23340   0.02380   Biso      1.000     C          0.559221  
         C4        1.0000    0.02060   0.81060   0.72910   Biso      1.000     C          -0.136679           
         C5        1.0000    0.15760   0.36660   0.53610   Biso      1.000     C          -0.054254           
         C6        1.0000    0.26830   0.12860   0.81630   Biso      1.000     C          0.021958  
         C7        1.0000    0.49290   0.19560   0.73730   Biso      1.000     C          0.077134  
         C8        1.0000    0.73170   0.87140   0.18370   Biso      1.000     C          0.021959  
         C9        1.0000    0.21000   0.18940   0.77090   Biso      1.000     C          -0.138123           
         C10       1.0000    0.57580   0.46500   0.90270   Biso      1.000     C          -0.124287           
         C11       1.0000    0.88220   0.05240   0.37880   Biso      1.000     C          0.583752  
         C12       1.0000    0.50710   0.80440   0.26270   Biso      1.000     C          0.077134  
         C13       1.0000    0.46680   0.93240   0.49000   Biso      1.000     C          0.47768   
         C14       1.0000    0.23150   0.61080   0.55330   Biso      1.000     C          0.092467  
         C15       1.0000    0.76850   0.38920   0.44670   Biso      1.000     C          0.092464  
         C16       1.0000    0.97940   0.18940   0.27090   Biso      1.000     C          -0.13668  
         C17       1.0000    0.92770   0.58580   0.41270   Biso      1.000     C          -0.054378           
         C18       1.0000    0.11780   0.94760   0.62120   Biso      1.000     C          0.583748  
         C19       1.0000    0.79000   0.81060   0.22910   Biso      1.000     C          -0.138124           
         C20       1.0000    0.62070   0.38920   0.94670   Biso      1.000     C          0.090916  
         C21       1.0000    0.17220   0.44680   0.99460   Biso      1.000     C          0.017636  
         C22       1.0000    0.84240   0.63340   0.46390   Biso      1.000     C          -0.05425  
         C23       1.0000    0.72540   0.55320   0.50540   Biso      1.000     C          0.017886  
         C24       1.0000    0.17020   0.05240   0.87880   Biso      1.000     C          0.581574  
         C25       1.0000    0.12040   0.23340   0.52380   Biso      1.000     C          0.557283  
         C26       1.0000    0.70350   0.74560   0.28850   Biso      1.000     C          0.08196   
         C27       1.0000    0.37930   0.61080   0.05330   Biso      1.000     C          0.090917  
         C28       1.0000    0.88700   0.76660   0.97620   Biso      1.000     C          0.559226  
         C29       1.0000    0.46560   0.93240   0.99000   Biso      1.000     C          0.478209  
         C30       1.0000    0.86030   0.12860   0.31630   Biso      1.000     C          0.020472  
         C31       1.0000    0.20900   0.36660   0.03610   Biso      1.000     C          -0.054261           
         C32       1.0000    0.53320   0.06760   0.51000   Biso      1.000     C          0.477679  
         C33       1.0000    0.04210   0.74560   0.78850   Biso      1.000     C          0.080969  
         C34       1.0000    0.27460   0.44680   0.49460   Biso      1.000     C          0.017886  
         C35       1.0000    0.20580   0.93040   0.24490   Biso      1.000     C          0.482282  
         C36       1.0000    0.42420   0.53500   0.09730   Biso      1.000     C          -0.124288           
         C37       1.0000    0.79420   0.06960   0.75510   Biso      1.000     C          0.48228   
         C38       1.0000    0.71580   0.13480   0.30030   Biso      1.000     C          -0.149248           
         C39       1.0000    0.41900   0.13480   0.80030   Biso      1.000     C          -0.149311           
         C40       1.0000    0.11080   0.53500   0.59730   Biso      1.000     C          -0.125551           
         C41       1.0000    0.88920   0.46500   0.40270   Biso      1.000     C          -0.125531           
         C42       1.0000    0.07230   0.41420   0.58730   Biso      1.000     C          -0.054358           
         C43       1.0000    0.53440   0.06760   0.01000   Biso      1.000     C          0.478209  
         C44       1.0000    0.58100   0.86520   0.19970   Biso      1.000     C          -0.14931  
         C45       1.0000    0.79100   0.63340   0.96390   Biso      1.000     C          -0.054261           
         C46       1.0000    0.95790   0.25440   0.21150   Biso      1.000     C          0.080969  
         C47       1.0000    0.72460   0.93040   0.74490   Biso      1.000     C          0.481242  
         C48       1.0000    0.28420   0.86520   0.69970   Biso      1.000     C          -0.149247           
         C49       1.0000    0.65810   0.58580   0.91270   Biso      1.000     C          -0.053313           
         C50       1.0000    0.27540   0.06960   0.25510   Biso      1.000     C          0.481245  
         C51       1.0000    0.13970   0.87140   0.68370   Biso      1.000     C          0.020473  
         C52       1.0000    0.87960   0.76660   0.47620   Biso      1.000     C          0.557285  
         C53       1.0000    0.29730   0.80440   0.76270   Biso      1.000     C          0.076756  
         C54       1.0000    0.70270   0.19560   0.23730   Biso      1.000     C          0.076756  
         C55       1.0000    0.34190   0.41420   0.08730   Biso      1.000     C          -0.053312           
         C56       1.0000    0.29650   0.25440   0.71150   Biso      1.000     C          0.081961  
         H1        1.0000    0.46670   0.09840   0.83190   Biso      1.000     H          0.137102  
         H2        1.0000    0.60600   0.19580   0.22500   Biso      1.000     H          0.099985  
         H3        1.0000    0.37330   0.36280   0.11420   Biso      1.000     H          0.134228  
         H4        1.0000    0.53330   0.90160   0.16810   Biso      1.000     H          0.137102  
         H5        1.0000    0.63170   0.09840   0.33190   Biso      1.000     H          0.137028  
         H6        1.0000    0.66730   0.58460   0.53920   Biso      1.000     H          0.099162  
         H7        1.0000    0.41020   0.80420   0.27500   Biso      1.000     H          0.100265  
         H8        1.0000    0.25690   0.30020   0.68370   Biso      1.000     H          0.087087  
         H9        1.0000    0.58980   0.19580   0.72500   Biso      1.000     H          0.100265  
         H10       1.0000    0.74160   0.30540   0.43870   Biso      1.000     H          0.101952  
         H11       1.0000    0.74310   0.69980   0.31630   Biso      1.000     H          0.087088  
         H12       1.0000    0.43620   0.69460   0.06130   Biso      1.000     H          0.102461  
         H13       1.0000    0.95670   0.69980   0.81630   Biso      1.000     H          0.086596  
         H14       1.0000    0.04330   0.30020   0.18370   Biso      1.000     H          0.086595  
         H15       1.0000    0.88890   0.81260   0.22030   Biso      1.000     H          0.138288  
         H16       1.0000    0.11110   0.18740   0.77970   Biso      1.000     H          0.138288  
         H17       1.0000    0.98950   0.36280   0.61420   Biso      1.000     H          0.135406  
         H18       1.0000    0.36830   0.90160   0.66810   Biso      1.000     H          0.137028  
         H19       1.0000    0.08270   0.41540   0.96080   Biso      1.000     H          0.09903   
         H20       1.0000    0.01050   0.63720   0.38580   Biso      1.000     H          0.135407  
         H21       1.0000    0.48930   0.43140   0.86670   Biso      1.000     H          0.120328  
         H22       1.0000    0.33270   0.41540   0.46080   Biso      1.000     H          0.099162  
         H23       1.0000    0.51070   0.56860   0.13330   Biso      1.000     H          0.120328  
         H24       1.0000    0.56380   0.30540   0.93870   Biso      1.000     H          0.102461  
         H25       1.0000    0.25840   0.69460   0.56130   Biso      1.000     H          0.101952  
         H26       1.0000    0.05790   0.56860   0.63330   Biso      1.000     H          0.120736  
         H27       1.0000    0.39400   0.80420   0.77500   Biso      1.000     H          0.099985  
         H28       1.0000    0.94210   0.43140   0.36670   Biso      1.000     H          0.120735  
         H29       1.0000    0.62670   0.63720   0.88580   Biso      1.000     H          0.134227  
         H30       1.0000    0.92370   0.81260   0.72030   Biso      1.000     H          0.138348  
         H31       1.0000    0.91730   0.58460   0.03920   Biso      1.000     H          0.099031  
         H32       1.0000    0.07630   0.18740   0.27970   Biso      1.000     H          0.138347  
         N1        1.0000    0.17990   0.74540   0.80760   Biso      1.000     N          -0.189874           
         N2        1.0000    0.43450   0.25460   0.69240   Biso      1.000     N          -0.191428           
         N3        1.0000    0.82010   0.25460   0.19240   Biso      1.000     N          -0.189874           
         N4        1.0000    0.56550   0.74540   0.30760   Biso      1.000     N          -0.191429           
         N5        1.0000    0.74300   0.43420   0.99990   Biso      1.000     N          -0.167922           
         N6        1.0000    0.30880   0.56580   0.50010   Biso      1.000     N          -0.168222           
         N7        1.0000    0.69120   0.43420   0.49990   Biso      1.000     N          -0.168222           
         N8        1.0000    0.25700   0.56580   0.00010   Biso      1.000     N          -0.167923           
         O1        1.0000    0.03240   0.03660   0.87600   Biso      1.000     O          -0.540088           
         O2        1.0000    0.70780   0.88120   0.80930   Biso      1.000     O          -0.464872           
         O3        1.0000    0.65500   0.11680   0.55570   Biso      1.000     O          -0.535938           
         O4        1.0000    0.00900   0.83840   0.45510   Biso      1.000     O          -0.513502           
         O5        1.0000    0.34500   0.88320   0.44430   Biso      1.000     O          -0.535939           
         O6        1.0000    0.76680   0.99040   0.07250   Biso      1.000     O          -0.548684           
         O7        1.0000    0.31890   0.12260   0.32580   Biso      1.000     O          -0.480708           
         O8        1.0000    0.19630   0.87740   0.17420   Biso      1.000     O          -0.480725           
         O9        1.0000    0.82940   0.83840   0.95510   Biso      1.000     O          -0.514315           
         O10       1.0000    0.77720   0.80220   0.50850   Biso      1.000     O          -0.556904           
         O11       1.0000    0.77640   0.00960   0.42750   Biso      1.000     O          -0.54984  
         O12       1.0000    0.29220   0.11880   0.19070   Biso      1.000     O          -0.464864           
         O13       1.0000    0.82660   0.11880   0.69070   Biso      1.000     O          -0.465785           
         O14       1.0000    0.68110   0.87740   0.67420   Biso      1.000     O          -0.480699           
         O15       1.0000    0.46450   0.12620   0.47920   Biso      1.000     O          -0.472519           
         O16       1.0000    0.17340   0.88120   0.30930   Biso      1.000     O          -0.465777           
         O17       1.0000    0.02500   0.80220   0.00850   Biso      1.000     O          -0.557666           
         O18       1.0000    0.53550   0.87380   0.52080   Biso      1.000     O          -0.472519           
         O19       1.0000    0.23320   0.00960   0.92750   Biso      1.000     O          -0.548695           
         O20       1.0000    0.66170   0.12620   0.97920   Biso      1.000     O          -0.473291           
         O21       1.0000    0.97500   0.19780   0.99150   Biso      1.000     O          -0.557663           
         O22       1.0000    0.96760   0.96340   0.12400   Biso      1.000     O          -0.540078           
         O23       1.0000    0.99100   0.16160   0.54490   Biso      1.000     O          -0.5135   
         O24       1.0000    0.99580   0.96340   0.62400   Biso      1.000     O          -0.541198           
         O25       1.0000    0.33830   0.87380   0.02080   Biso      1.000     O          -0.473291           
         O26       1.0000    0.46180   0.11680   0.05570   Biso      1.000     O          -0.535976           
         O27       1.0000    0.17060   0.16160   0.04490   Biso      1.000     O          -0.51431  
         O28       1.0000    0.22360   0.99040   0.57250   Biso      1.000     O          -0.549839           
         O29       1.0000    0.00420   0.03660   0.37600   Biso      1.000     O          -0.541199           
         O30       1.0000    0.80370   0.12260   0.82580   Biso      1.000     O          -0.480717           
         O31       1.0000    0.53820   0.88320   0.94430   Biso      1.000     O          -0.535974           
         O32       1.0000    0.22280   0.19780   0.49150   Biso      1.000     O          -0.556903           
         Yb1       1.0000    0.19740   0.99060   0.06590   Biso      1.000     Yb          1.276874  
         Yb2       1.0000    0.20680   0.00940   0.43410   Biso      1.000     Yb          1.277724  
         Yb3       1.0000    0.79320   0.99060   0.56590   Biso      1.000     Yb          1.277722  
         Yb4       1.0000    0.80260   0.00940   0.93410   Biso      1.000     Yb          1.276874 