
##########################################################################
#               Crystallographic Information Format file
#               Produced by PyCifRW module
#
#  This is a CIF file.  CIF has been adopted by the International
#  Union of Crystallography as the standard for data archiving and
#  transmission.
#
#  For information on this file format, follow the CIF links at
#  http://www.iucr.org
##########################################################################

data_image0

_cell_length_a                          9.459
_cell_length_b                          12.0481
_cell_length_c                          16.683
_cell_angle_alpha                       96.0553
_cell_angle_beta                        90
_cell_angle_gamma                       113.113
_symmetry_space_group_name_H-M          'P 1'
_symmetry_int_tables_number             1
loop_
  _symmetry_equiv_pos_as_xyz
         'x, y, z' 
loop_
  _atom_site_label
  _atom_site_occupancy
  _atom_site_fract_x
  _atom_site_fract_y
  _atom_site_fract_z
  _atom_site_thermal_displace_type
  _atom_site_B_iso_or_equiv
  _atom_site_type_symbol
  _atom_site_charge
         Ag1       1.0000    0.03444   0.31684   0.08018   Biso      1.000     Ag          0.347072  
         Ag2       1.0000    0.96556   0.68316   0.91982   Biso      1.000     Ag          0.347072  
         Ag3       1.0000    0.28240   0.31684   0.58018   Biso      1.000     Ag          0.34776599999999996           
         Ag4       1.0000    0.71760   0.68316   0.41982   Biso      1.000     Ag          0.34776599999999996           
         C1        1.0000    0.78530   0.86560   0.20000   Biso      1.000     C          -0.147143           
         C2        1.0000    0.03470   0.06960   0.51160   Biso      1.000     C          0.495429  
         C3        1.0000    0.20290   0.19640   0.73870   Biso      1.000     C          0.0883    
         C4        1.0000    0.00650   0.80360   0.76130   Biso      1.000     C          0.088635  
         C5        1.0000    0.62360   0.23540   0.02350   Biso      1.000     C          0.642609  
         C6        1.0000    0.67360   0.44600   0.49420   Biso      1.000     C          0.025235  
         C7        1.0000    0.29360   0.63260   0.46490   Biso      1.000     C          -0.065674           
         C8        1.0000    0.70990   0.93020   0.74460   Biso      1.000     C          0.495083  
         C9        1.0000    0.54680   0.74940   0.28860   Biso      1.000     C          0.07421900000000001           
         C10       1.0000    0.96530   0.93040   0.48840   Biso      1.000     C          0.495429  
         C11       1.0000    0.61180   0.23540   0.52350   Biso      1.000     C          0.64274   
         C12       1.0000    0.77280   0.12840   0.31600   Biso      1.000     C          0.015725  
         C13       1.0000    0.61430   0.53940   0.09580   Biso      1.000     C          -0.128921           
         C14       1.0000    0.08030   0.86560   0.70000   Biso      1.000     C          -0.147828           
         C15       1.0000    0.22030   0.93020   0.24460   Biso      1.000     C          0.495158  
         C16       1.0000    0.91970   0.13440   0.30000   Biso      1.000     C          -0.147838           
         C17       1.0000    0.72680   0.61280   0.05110   Biso      1.000     C          0.091282  
         C18       1.0000    0.83960   0.41600   0.58910   Biso      1.000     C          -0.044886           
         C19       1.0000    0.67260   0.05280   0.37850   Biso      1.000     C          0.647658  
         C20       1.0000    0.47850   0.19000   0.77020   Biso      1.000     C          -0.137253           
         C21       1.0000    0.16040   0.58400   0.41090   Biso      1.000     C          -0.044885           
         C22       1.0000    0.33900   0.63260   0.96490   Biso      1.000     C          -0.065511           
         C23       1.0000    0.42360   0.58400   0.91090   Biso      1.000     C          -0.045143           
         C24       1.0000    0.22720   0.87160   0.68400   Biso      1.000     C          0.015724000000000002          
         C25       1.0000    0.27320   0.38720   0.94890   Biso      1.000     C          0.091274  
         C26       1.0000    0.38820   0.76460   0.47650   Biso      1.000     C          0.642741  
         C27       1.0000    0.99350   0.19640   0.23870   Biso      1.000     C          0.088646  
         C28       1.0000    0.32740   0.94720   0.62150   Biso      1.000     C          0.647658  
         C29       1.0000    0.64440   0.87160   0.18400   Biso      1.000     C          0.015250999999999999          
         C30       1.0000    0.38020   0.05280   0.87850   Biso      1.000     C          0.646925  
         C31       1.0000    0.35560   0.12840   0.81600   Biso      1.000     C          0.01525   
         C32       1.0000    0.79710   0.80360   0.26130   Biso      1.000     C          0.088315  
         C33       1.0000    0.03490   0.06960   0.01160   Biso      1.000     C          0.495179  
         C34       1.0000    0.32640   0.55400   0.50580   Biso      1.000     C          0.025252  
         C35       1.0000    0.29010   0.06980   0.25540   Biso      1.000     C          0.495084  
         C36       1.0000    0.11400   0.38720   0.44890   Biso      1.000     C          0.093192  
         C37       1.0000    0.88600   0.61280   0.55110   Biso      1.000     C          0.093192  
         C38       1.0000    0.22760   0.55400   0.00580   Biso      1.000     C          0.026442  
         C39       1.0000    0.70640   0.36740   0.53510   Biso      1.000     C          -0.06565800000000001          
         C40       1.0000    0.52150   0.81000   0.22980   Biso      1.000     C          -0.137239           
         C41       1.0000    0.07490   0.46060   0.40420   Biso      1.000     C          -0.131011           
         C42       1.0000    0.66100   0.36740   0.03510   Biso      1.000     C          -0.065512           
         C43       1.0000    0.92510   0.53940   0.59580   Biso      1.000     C          -0.131011           
         C44       1.0000    0.45320   0.25060   0.71140   Biso      1.000     C          0.07423300000000001           
         C45       1.0000    0.28850   0.81000   0.72980   Biso      1.000     C          -0.13825  
         C46       1.0000    0.57640   0.41600   0.08910   Biso      1.000     C          -0.045135           
         C47       1.0000    0.20260   0.74940   0.78860   Biso      1.000     C          0.076401  
         C48       1.0000    0.38570   0.46060   0.90420   Biso      1.000     C          -0.128908           
         C49       1.0000    0.96510   0.93040   0.98840   Biso      1.000     C          0.495179  
         C50       1.0000    0.71150   0.19000   0.27020   Biso      1.000     C          -0.13825  
         C51       1.0000    0.61980   0.94720   0.12150   Biso      1.000     C          0.646925  
         C52       1.0000    0.37640   0.76460   0.97650   Biso      1.000     C          0.642609  
         C53       1.0000    0.77970   0.06980   0.75540   Biso      1.000     C          0.495159  
         C54       1.0000    0.21470   0.13440   0.80000   Biso      1.000     C          -0.147127           
         C55       1.0000    0.77240   0.44600   0.99420   Biso      1.000     C          0.026442  
         C56       1.0000    0.79740   0.25060   0.21140   Biso      1.000     C          0.076401  
         H1        1.0000    0.03360   0.90320   0.66950   Biso      1.000     H          0.137595  
         H2        1.0000    0.24410   0.70800   0.81890   Biso      1.000     H          0.085543  
         H3        1.0000    0.43750   0.42680   0.86860   Biso      1.000     H          0.119979  
         H4        1.0000    0.50160   0.63420   0.88140   Biso      1.000     H          0.137486  
         H5        1.0000    0.41320   0.58560   0.54070   Biso      1.000     H          0.10478399999999999           
         H6        1.0000    0.86740   0.36580   0.61860   Biso      1.000     H          0.13780499999999998           
         H7        1.0000    0.05190   0.30460   0.44470   Biso      1.000     H          0.10673800000000001           
         H8        1.0000    0.57530   0.18960   0.77950   Biso      1.000     H          0.146857  
         H9        1.0000    0.56250   0.57320   0.13140   Biso      1.000     H          0.11997999999999999           
         H10       1.0000    0.53610   0.29200   0.68110   Biso      1.000     H          0.086038  
         H11       1.0000    0.13040   0.09680   0.83050   Biso      1.000     H          0.137219  
         H12       1.0000    0.42470   0.81040   0.22050   Biso      1.000     H          0.146857  
         H13       1.0000    0.58680   0.41440   0.45930   Biso      1.000     H          0.10478499999999999           
         H14       1.0000    0.82760   0.41440   0.95930   Biso      1.000     H          0.104071  
         H15       1.0000    0.38570   0.81040   0.72050   Biso      1.000     H          0.146471  
         H16       1.0000    0.98930   0.42680   0.36860   Biso      1.000     H          0.120814  
         H17       1.0000    0.13260   0.63420   0.38140   Biso      1.000     H          0.13780499999999998           
         H18       1.0000    0.96640   0.09680   0.33050   Biso      1.000     H          0.137596  
         H19       1.0000    0.10730   0.19780   0.72760   Biso      1.000     H          0.10138   
         H20       1.0000    0.75590   0.29200   0.18110   Biso      1.000     H          0.085543  
         H21       1.0000    0.89270   0.80220   0.27240   Biso      1.000     H          0.101379  
         H22       1.0000    0.01070   0.57320   0.63140   Biso      1.000     H          0.120814  
         H23       1.0000    0.25270   0.30460   0.94470   Biso      1.000     H          0.10759   
         H24       1.0000    0.09050   0.19780   0.22760   Biso      1.000     H          0.10151900000000001           
         H25       1.0000    0.86960   0.90320   0.16950   Biso      1.000     H          0.13722   
         H26       1.0000    0.49840   0.36580   0.11860   Biso      1.000     H          0.137486  
         H27       1.0000    0.17240   0.58560   0.04070   Biso      1.000     H          0.104071  
         H28       1.0000    0.90950   0.80220   0.77240   Biso      1.000     H          0.10152   
         H29       1.0000    0.94810   0.69540   0.55530   Biso      1.000     H          0.10673800000000001           
         H30       1.0000    0.61430   0.18960   0.27950   Biso      1.000     H          0.146471  
         H31       1.0000    0.74730   0.69540   0.05530   Biso      1.000     H          0.10759   
         H32       1.0000    0.46390   0.70800   0.31890   Biso      1.000     H          0.086039  
         Ho1       1.0000    0.30343   0.00942   0.43410   Biso      1.000     Ho          2.0708849999999996  
         Ho2       1.0000    0.70599   0.00942   0.93410   Biso      1.000     Ho          2.070232  
         Ho3       1.0000    0.29401   0.99058   0.06590   Biso      1.000     Ho          2.070232  
         Ho4       1.0000    0.69657   0.99058   0.56590   Biso      1.000     Ho          2.0708849999999996  
         N1        1.0000    0.06210   0.74480   0.80630   Biso      1.000     N          -0.190209           
         N2        1.0000    0.68270   0.74480   0.30630   Biso      1.000     N          -0.189604           
         N3        1.0000    0.93790   0.25520   0.19370   Biso      1.000     N          -0.19021  
         N4        1.0000    0.19010   0.43240   0.99980   Biso      1.000     N          -0.18086300000000002          
         N5        1.0000    0.75770   0.56760   0.50020   Biso      1.000     N          -0.18111  
         N6        1.0000    0.31730   0.25520   0.69370   Biso      1.000     N          -0.189604           
         N7        1.0000    0.80990   0.56760   0.00020   Biso      1.000     N          -0.180864           
         N8        1.0000    0.24230   0.43240   0.49980   Biso      1.000     N          -0.181112           
         O1        1.0000    0.30440   0.12280   0.32490   Biso      1.000     O          -0.606579           
         O2        1.0000    0.33030   0.11960   0.19160   Biso      1.000     O          -0.6099680000000001           
         O3        1.0000    0.53760   0.03840   0.37730   Biso      1.000     O          -0.662288           
         O4        1.0000    0.72420   0.20220   0.99230   Biso      1.000     O          -0.652918           
         O5        1.0000    0.72570   0.98680   0.07330   Biso      1.000     O          -0.667858           
         O6        1.0000    0.26110   0.98680   0.57330   Biso      1.000     O          -0.668971           
         O7        1.0000    0.03540   0.88360   0.44180   Biso      1.000     O          -0.590536           
         O8        1.0000    0.47800   0.20220   0.49230   Biso      1.000     O          -0.653249           
         O9        1.0000    0.15180   0.11640   0.05820   Biso      1.000     O          -0.590605           
         O10       1.0000    0.96460   0.11640   0.55820   Biso      1.000     O          -0.590536           
         O11       1.0000    0.84820   0.88360   0.94180   Biso      1.000     O          -0.590605           
         O12       1.0000    0.18160   0.87720   0.17510   Biso      1.000     O          -0.606686           
         O13       1.0000    0.69560   0.87720   0.67510   Biso      1.000     O          -0.606579           
         O14       1.0000    0.27430   0.01320   0.92670   Biso      1.000     O          -0.667858           
         O15       1.0000    0.03450   0.87380   0.02060   Biso      1.000     O          -0.58513  
         O16       1.0000    0.96550   0.12620   0.97940   Biso      1.000     O          -0.58513  
         O17       1.0000    0.49560   0.16560   0.04450   Biso      1.000     O          -0.6636479999999999           
         O18       1.0000    0.52200   0.79780   0.50770   Biso      1.000     O          -0.653249           
         O19       1.0000    0.21070   0.88040   0.30840   Biso      1.000     O          -0.610128           
         O20       1.0000    0.27580   0.79780   0.00770   Biso      1.000     O          -0.652918           
         O21       1.0000    0.16070   0.12620   0.47940   Biso      1.000     O          -0.5859409999999999           
         O22       1.0000    0.83930   0.87380   0.52060   Biso      1.000     O          -0.5859409999999999           
         O23       1.0000    0.49920   0.96160   0.12270   Biso      1.000     O          -0.662141           
         O24       1.0000    0.33000   0.83440   0.45550   Biso      1.000     O          -0.663309           
         O25       1.0000    0.67000   0.16560   0.54450   Biso      1.000     O          -0.663309           
         O26       1.0000    0.73890   0.01320   0.42670   Biso      1.000     O          -0.66897  
         O27       1.0000    0.81840   0.12280   0.82490   Biso      1.000     O          -0.606686           
         O28       1.0000    0.50440   0.83440   0.95550   Biso      1.000     O          -0.6636479999999999           
         O29       1.0000    0.50080   0.03840   0.87730   Biso      1.000     O          -0.66214  
         O30       1.0000    0.46240   0.96160   0.62270   Biso      1.000     O          -0.662288           
         O31       1.0000    0.78930   0.11960   0.69160   Biso      1.000     O          -0.610128           
         O32       1.0000    0.66970   0.88040   0.80840   Biso      1.000     O          -0.6099680000000001 