
##########################################################################
#               Crystallographic Information Format file
#               Produced by PyCifRW module
#
#  This is a CIF file.  CIF has been adopted by the International
#  Union of Crystallography as the standard for data archiving and
#  transmission.
#
#  For information on this file format, follow the CIF links at
#  http://www.iucr.org
##########################################################################

data_image0

_cell_length_a                          10.6761
_cell_length_b                          16.1012
_cell_length_c                          18.0131
_cell_angle_alpha                       103.521
_cell_angle_beta                        106.261
_cell_angle_gamma                       108.668
_symmetry_space_group_name_H-M          'P 1'
_symmetry_int_tables_number             1
loop_
  _symmetry_equiv_pos_as_xyz
         'x, y, z' 
loop_
  _atom_site_label
  _atom_site_occupancy
  _atom_site_fract_x
  _atom_site_fract_y
  _atom_site_fract_z
  _atom_site_thermal_displace_type
  _atom_site_B_iso_or_equiv
  _atom_site_type_symbol
  _atom_site_charge
         C1        1.0000    0.20510   0.18790   0.20510   Biso      1.000     C          0.081367  
         C2        1.0000    0.59430   0.34100   0.12200   Biso      1.000     C          0.1085    
         C3        1.0000    0.23570   0.32550   0.33220   Biso      1.000     C          0.074826  
         C4        1.0000    0.54360   0.08670   0.71280   Biso      1.000     C          0.224711  
         C5        1.0000    0.66750   0.08560   0.76380   Biso      1.000     C          -0.157185           
         C6        1.0000    0.02460   0.75240   0.66290   Biso      1.000     C          -0.055288           
         C7        1.0000    0.65850   0.01810   0.79970   Biso      1.000     C          0.103733  
         C8        1.0000    0.33250   0.91440   0.23620   Biso      1.000     C          -0.15709  
         C9        1.0000    0.32070   0.24190   0.56250   Biso      1.000     C          -0.150385           
         C10       1.0000    0.92270   0.87300   0.69800   Biso      1.000     C          -0.068105           
         C11       1.0000    0.02050   0.34850   0.24840   Biso      1.000     C          -0.040833           
         C12       1.0000    0.58500   0.40330   0.07980   Biso      1.000     C          -0.177333           
         C13       1.0000    0.58750   0.97890   0.30170   Biso      1.000     C          -0.165354           
         C14       1.0000    0.93570   0.07440   0.14300   Biso      1.000     C          -0.035816           
         C15       1.0000    0.42380   0.68950   0.36670   Biso      1.000     C          -0.167715           
         C16       1.0000    0.34150   0.98190   0.20030   Biso      1.000     C          0.103929  
         C17       1.0000    0.41310   0.62040   0.40100   Biso      1.000     C          0.098462  
         C18       1.0000    0.41250   0.02110   0.69830   Biso      1.000     C          -0.165491           
         C19       1.0000    0.06430   0.92560   0.85700   Biso      1.000     C          -0.036592           
         C20       1.0000    0.32910   0.31510   0.01520   Biso      1.000     C          -0.15061  
         C21       1.0000    0.40570   0.65900   0.87800   Biso      1.000     C          0.10841   
         C22       1.0000    0.03280   0.24150   0.12120   Biso      1.000     C          -0.074168           
         C23       1.0000    0.45150   0.38970   0.02720   Biso      1.000     C          0.211966  
         C24       1.0000    0.18610   0.81990   0.81840   Biso      1.000     C          0.084801  
         C25       1.0000    0.33990   0.25300   0.05580   Biso      1.000     C          0.125086  
         C26       1.0000    0.33120   0.31160   0.52770   Biso      1.000     C          0.121117  
         C27       1.0000    0.41500   0.59670   0.92020   Biso      1.000     C          -0.177294           
         C28       1.0000    0.54850   0.61030   0.97280   Biso      1.000     C          0.211858  
         C29       1.0000    0.58690   0.37960   0.59900   Biso      1.000     C          0.098212  
         C30       1.0000    0.97950   0.65150   0.75160   Biso      1.000     C          -0.041457           
         C31       1.0000    0.66880   0.68840   0.47230   Biso      1.000     C          0.120967  
         C32       1.0000    0.59830   0.04740   0.26490   Biso      1.000     C          0.118898  
         C33       1.0000    0.57620   0.31050   0.63330   Biso      1.000     C          -0.167847           
         C34       1.0000    0.67930   0.75810   0.43750   Biso      1.000     C          -0.150284           
         C35       1.0000    0.96720   0.75850   0.87880   Biso      1.000     C          -0.075081           
         C36       1.0000    0.55240   0.75560   0.38530   Biso      1.000     C          0.229188  
         C37       1.0000    0.97540   0.24760   0.33710   Biso      1.000     C          -0.054353           
         C38       1.0000    0.44760   0.24440   0.61470   Biso      1.000     C          0.229226  
         C39       1.0000    0.79490   0.81210   0.79490   Biso      1.000     C          0.079477  
         C40       1.0000    0.76430   0.67450   0.66780   Biso      1.000     C          0.073477  
         C41       1.0000    0.81390   0.18010   0.18160   Biso      1.000     C          0.08676   
         C42       1.0000    0.45640   0.91330   0.28720   Biso      1.000     C          0.22483   
         C43       1.0000    0.66010   0.74700   0.94420   Biso      1.000     C          0.124827  
         C44       1.0000    0.67090   0.68490   0.98480   Biso      1.000     C          -0.150653           
         C45       1.0000    0.07730   0.12700   0.30200   Biso      1.000     C          -0.06745  
         C46       1.0000    0.40170   0.95260   0.73510   Biso      1.000     C          0.118535  
         H1        1.0000    0.67190   0.97820   0.33690   Biso      1.000     H          0.146746  
         H2        1.0000    0.66890   0.45410   0.08730   Biso      1.000     H          0.145865  
         H3        1.0000    0.74380   0.79870   0.95280   Biso      1.000     H          0.11949   
         H4        1.0000    0.34030   0.68980   0.33020   Biso      1.000     H          0.144456  
         H5        1.0000    0.32180   0.57320   0.38850   Biso      1.000     H          0.113591  
         H6        1.0000    0.33110   0.54590   0.91270   Biso      1.000     H          0.145804  
         H7        1.0000    0.23030   0.19430   0.55100   Biso      1.000     H          0.158578  
         H8        1.0000    0.76200   0.69340   0.02080   Biso      1.000     H          0.155073  
         H9        1.0000    0.68970   0.09260   0.27460   Biso      1.000     H          0.111657  
         H10       1.0000    0.31510   0.64910   0.84050   Biso      1.000     H          0.114146  
         H11       1.0000    0.65970   0.31020   0.66980   Biso      1.000     H          0.144406  
         H12       1.0000    0.31030   0.90740   0.72540   Biso      1.000     H          0.11142   
         H13       1.0000    0.67820   0.42680   0.61150   Biso      1.000     H          0.113483  
         H14       1.0000    0.68490   0.35090   0.15950   Biso      1.000     H          0.114283  
         H15       1.0000    0.76970   0.80570   0.44900   Biso      1.000     H          0.158621  
         H16       1.0000    0.75280   0.68840   0.50860   Biso      1.000     H          0.115178  
         H17       1.0000    0.75860   0.13150   0.77390   Biso      1.000     H          0.15155   
         H18       1.0000    0.25680   0.98290   0.16590   Biso      1.000     H          0.125414  
         H19       1.0000    0.24140   0.86850   0.22610   Biso      1.000     H          0.151661  
         H20       1.0000    0.74320   0.01710   0.83410   Biso      1.000     H          0.125297  
         H21       1.0000    0.25620   0.20130   0.04720   Biso      1.000     H          0.119474  
         H22       1.0000    0.32810   0.02180   0.66310   Biso      1.000     H          0.146646  
         H23       1.0000    0.24720   0.31160   0.49140   Biso      1.000     H          0.115219  
         H24       1.0000    0.23800   0.30660   0.97920   Biso      1.000     H          0.155164  
         Mn1       1.0000    0.48960   0.16574   0.16687   Biso      1.000     Mn          0.953483  
         Mn2       1.0000    0.51040   0.83426   0.83313   Biso      1.000     Mn          0.948147  
         Mn3       1.0000    0.50000   0.50000   0.50000   Biso      1.000     Mn          0.951226  
         N1        1.0000    0.47440   0.26610   0.10970   Biso      1.000     N          -0.280002           
         N2        1.0000    0.97860   0.57780   0.74440   Biso      1.000     N          -0.343801           
         N3        1.0000    0.53680   0.62000   0.45400   Biso      1.000     N          -0.285929           
         N4        1.0000    0.52560   0.73390   0.89030   Biso      1.000     N          -0.279462           
         N5        1.0000    0.30800   0.83790   0.84160   Biso      1.000     N          -0.396764           
         N6        1.0000    0.05260   0.73410   0.60450   Biso      1.000     N          -0.344335           
         N7        1.0000    0.09610   0.08000   0.33920   Biso      1.000     N          -0.330925           
         N8        1.0000    0.47600   0.04870   0.21470   Biso      1.000     N          -0.279118           
         N9        1.0000    0.43030   0.17020   0.64520   Biso      1.000     N          -0.130334           
         N10       1.0000    0.02140   0.42220   0.25560   Biso      1.000     N          -0.345071           
         N11       1.0000    0.43860   0.45970   0.98510   Biso      1.000     N          -0.12769  
         N12       1.0000    0.12110   0.99920   0.90880   Biso      1.000     N          -0.332367           
         N13       1.0000    0.56970   0.82980   0.35480   Biso      1.000     N          -0.130075           
         N14       1.0000    0.66380   0.61750   0.61200   Biso      1.000     N          -0.39228  
         N15       1.0000    0.46320   0.38000   0.54600   Biso      1.000     N          -0.286016           
         N16       1.0000    0.69870   0.82290   0.81040   Biso      1.000     N          -0.393693           
         N17       1.0000    0.94740   0.26590   0.39550   Biso      1.000     N          -0.345068           
         N18       1.0000    0.56140   0.54030   0.01490   Biso      1.000     N          -0.127643           
         N19       1.0000    0.33620   0.38250   0.38800   Biso      1.000     N          -0.393531           
         N20       1.0000    0.44550   0.83940   0.32030   Biso      1.000     N          -0.143568           
         N21       1.0000    0.87890   0.00080   0.09120   Biso      1.000     N          -0.333218           
         N22       1.0000    0.52400   0.95130   0.78530   Biso      1.000     N          -0.278749           
         N23       1.0000    0.55450   0.16060   0.67970   Biso      1.000     N          -0.143726           
         N24       1.0000    0.96430   0.74590   0.94020   Biso      1.000     N          -0.3098   
         N25       1.0000    0.30130   0.17710   0.18960   Biso      1.000     N          -0.396725           
         N26       1.0000    0.03570   0.25410   0.05980   Biso      1.000     N          -0.310318           
         N27       1.0000    0.69200   0.16210   0.15840   Biso      1.000     N          -0.39979  
         N28       1.0000    0.90390   0.92000   0.66080   Biso      1.000     N          -0.329948           
         W1        1.0000    0.03855   0.21714   0.23215   Biso      1.000     W          0.724807  
         W2        1.0000    0.96145   0.78286   0.76785   Biso      1.000     W          0.732281 