
##########################################################################
#               Crystallographic Information Format file
#               Produced by PyCifRW module
#
#  This is a CIF file.  CIF has been adopted by the International
#  Union of Crystallography as the standard for data archiving and
#  transmission.
#
#  For information on this file format, follow the CIF links at
#  http://www.iucr.org
##########################################################################

data_image0

_cell_length_a                          13.4109
_cell_length_b                          16.2568
_cell_length_c                          27.9028
_cell_angle_alpha                       90
_cell_angle_beta                        98.984
_cell_angle_gamma                       90
_symmetry_space_group_name_H-M          'P 1'
_symmetry_int_tables_number             1
loop_
  _symmetry_equiv_pos_as_xyz
         'x, y, z' 
loop_
  _atom_site_label
  _atom_site_occupancy
  _atom_site_fract_x
  _atom_site_fract_y
  _atom_site_fract_z
  _atom_site_thermal_displace_type
  _atom_site_B_iso_or_equiv
  _atom_site_type_symbol
  _atom_site_charge
         Ba1       1.0000    0.37181   0.74371   0.82015   Biso      1.000     Ba          1.593487  
         Ba2       1.0000    0.62819   0.25629   0.17985   Biso      1.000     Ba          1.593487  
         Ba3       1.0000    0.34922   0.13999   0.23193   Biso      1.000     Ba          1.615981  
         Ba4       1.0000    0.61378   0.40562   0.04100   Biso      1.000     Ba          1.590409  
         Ba5       1.0000    0.88622   0.40562   0.95900   Biso      1.000     Ba          1.590409  
         Ba6       1.0000    0.88622   0.09438   0.45900   Biso      1.000     Ba          1.590409  
         Ba7       1.0000    0.15078   0.36001   0.26807   Biso      1.000     Ba          1.615981  
         Ba8       1.0000    0.87181   0.24371   0.32015   Biso      1.000     Ba          1.593487  
         Ba9       1.0000    0.15078   0.13999   0.76807   Biso      1.000     Ba          1.615981  
         Ba10      1.0000    0.87181   0.25629   0.82015   Biso      1.000     Ba          1.593487  
         Ba11      1.0000    0.38622   0.90562   0.45900   Biso      1.000     Ba          1.590409  
         Ba12      1.0000    0.65078   0.63999   0.26807   Biso      1.000     Ba          1.615981  
         Ba13      1.0000    0.12819   0.74371   0.17985   Biso      1.000     Ba          1.593487  
         Ba14      1.0000    0.11378   0.59438   0.04100   Biso      1.000     Ba          1.590409  
         Ba15      1.0000    0.37181   0.75629   0.32015   Biso      1.000     Ba          1.593487  
         Ba16      1.0000    0.84922   0.86001   0.23193   Biso      1.000     Ba          1.615981  
         Ba17      1.0000    0.65078   0.86001   0.76807   Biso      1.000     Ba          1.615981  
         Ba18      1.0000    0.38622   0.59438   0.95900   Biso      1.000     Ba          1.590409  
         Ba19      1.0000    0.12819   0.75629   0.67985   Biso      1.000     Ba          1.593486  
         Ba20      1.0000    0.84922   0.63999   0.73193   Biso      1.000     Ba          1.615981  
         Ba21      1.0000    0.11378   0.90562   0.54100   Biso      1.000     Ba          1.590409  
         Ba22      1.0000    0.61378   0.09438   0.54100   Biso      1.000     Ba          1.590409  
         Ba23      1.0000    0.34922   0.36001   0.73193   Biso      1.000     Ba          1.615981  
         Ba24      1.0000    0.62819   0.24371   0.67985   Biso      1.000     Ba          1.593487  
         C1        1.0000    0.37910   0.17380   0.70380   Biso      1.000     C          0.664445  
         C2        1.0000    0.09050   0.35570   0.89520   Biso      1.000     C          0.608921  
         C3        1.0000    0.13070   0.55810   0.80130   Biso      1.000     C          -0.138815           
         C4        1.0000    0.32980   0.84490   0.62721   Biso      1.000     C          0.622578  
         C5        1.0000    0.36080   0.92910   0.64854   Biso      1.000     C          -0.036014           
         C6        1.0000    0.12110   0.50640   0.88182   Biso      1.000     C          -0.138445           
         C7        1.0000    0.88070   0.52180   0.21674   Biso      1.000     C          -0.042257           
         C8        1.0000    0.17020   0.65510   0.87279   Biso      1.000     C          0.622578  
         C9        1.0000    0.37890   0.99360   0.61818   Biso      1.000     C          -0.138445           
         C10       1.0000    0.88460   0.53990   0.27050   Biso      1.000     C          0.585195  
         C11       1.0000    0.13920   0.57090   0.85146   Biso      1.000     C          -0.036014           
         C12       1.0000    0.12210   0.52230   0.93467   Biso      1.000     C          0.646107  
         C13       1.0000    0.36930   0.94190   0.69870   Biso      1.000     C          -0.138815           
         C14       1.0000    0.38750   0.08770   0.68538   Biso      1.000     C          -0.140588           
         C15       1.0000    0.40950   0.14430   0.60480   Biso      1.000     C          0.608921  
         C16       1.0000    0.39520   0.07280   0.63705   Biso      1.000     C          -0.02901  
         C17       1.0000    0.37790   0.97770   0.56533   Biso      1.000     C          0.646107  
         C18       1.0000    0.37400   0.87130   0.73311   Biso      1.000     C          0.645389  
         C19       1.0000    0.38750   0.41230   0.18538   Biso      1.000     C          -0.140588           
         C20       1.0000    0.38070   0.02180   0.71674   Biso      1.000     C          -0.042257           
         C21       1.0000    0.87890   0.00640   0.61818   Biso      1.000     C          -0.138445           
         C22       1.0000    0.86080   0.07090   0.64854   Biso      1.000     C          -0.036014           
         C23       1.0000    0.82980   0.15510   0.62721   Biso      1.000     C          0.622578  
         C24       1.0000    0.90950   0.85570   0.60480   Biso      1.000     C          0.608921  
         C25       1.0000    0.89520   0.92720   0.63705   Biso      1.000     C          -0.02901  
         C26       1.0000    0.87910   0.82620   0.70380   Biso      1.000     C          0.664445  
         C27       1.0000    0.88750   0.91230   0.68538   Biso      1.000     C          -0.140588           
         C28       1.0000    0.86930   0.05810   0.69870   Biso      1.000     C          -0.138815           
         C29       1.0000    0.87400   0.12870   0.73311   Biso      1.000     C          0.645389  
         C30       1.0000    0.38460   0.46010   0.27050   Biso      1.000     C          0.585195  
         C31       1.0000    0.38070   0.47820   0.21674   Biso      1.000     C          -0.042257           
         C32       1.0000    0.37400   0.62870   0.23311   Biso      1.000     C          0.64539   
         C33       1.0000    0.10480   0.42720   0.86295   Biso      1.000     C          -0.02901  
         C34       1.0000    0.36930   0.55810   0.19870   Biso      1.000     C          -0.138815           
         C35       1.0000    0.88460   0.96010   0.77050   Biso      1.000     C          0.585195  
         C36       1.0000    0.32980   0.65510   0.12721   Biso      1.000     C          0.622578  
         C37       1.0000    0.36080   0.57090   0.14854   Biso      1.000     C          -0.036014           
         C38       1.0000    0.37790   0.52230   0.06533   Biso      1.000     C          0.646107  
         C39       1.0000    0.37890   0.50640   0.11818   Biso      1.000     C          -0.138445           
         C40       1.0000    0.40950   0.35570   0.10480   Biso      1.000     C          0.608921  
         C41       1.0000    0.39520   0.42720   0.13705   Biso      1.000     C          -0.02901  
         C42       1.0000    0.11250   0.41230   0.81462   Biso      1.000     C          -0.140588           
         C43       1.0000    0.37910   0.32620   0.20380   Biso      1.000     C          0.664445  
         C44       1.0000    0.87790   0.02230   0.56533   Biso      1.000     C          0.646107  
         C45       1.0000    0.12090   0.32620   0.79620   Biso      1.000     C          0.664445  
         C46       1.0000    0.38460   0.03990   0.77050   Biso      1.000     C          0.585195  
         C47       1.0000    0.88070   0.97820   0.71674   Biso      1.000     C          -0.042257           
         C48       1.0000    0.86930   0.44190   0.19870   Biso      1.000     C          -0.138815           
         C49       1.0000    0.87400   0.37130   0.23311   Biso      1.000     C          0.64539   
         C50       1.0000    0.62110   0.49360   0.88182   Biso      1.000     C          -0.138445           
         C51       1.0000    0.63920   0.07090   0.35146   Biso      1.000     C          -0.036014           
         C52       1.0000    0.63070   0.44190   0.80130   Biso      1.000     C          -0.138815           
         C53       1.0000    0.17020   0.84490   0.37279   Biso      1.000     C          0.622578  
         C54       1.0000    0.13920   0.92910   0.35146   Biso      1.000     C          -0.036014           
         C55       1.0000    0.62210   0.47770   0.93467   Biso      1.000     C          0.646107  
         C56       1.0000    0.60480   0.92720   0.36295   Biso      1.000     C          -0.02901  
         C57       1.0000    0.59050   0.85570   0.39520   Biso      1.000     C          0.608921  
         C58       1.0000    0.62600   0.12870   0.26689   Biso      1.000     C          0.645389  
         C59       1.0000    0.12210   0.97770   0.43467   Biso      1.000     C          0.646107  
         C60       1.0000    0.13070   0.94190   0.30130   Biso      1.000     C          -0.138815           
         C61       1.0000    0.12110   0.99360   0.38182   Biso      1.000     C          -0.138445           
         C62       1.0000    0.12600   0.62870   0.76689   Biso      1.000     C          0.645389  
         C63       1.0000    0.09050   0.14430   0.39520   Biso      1.000     C          0.608921  
         C64       1.0000    0.10480   0.07280   0.36295   Biso      1.000     C          -0.02901  
         C65       1.0000    0.62110   0.00640   0.38182   Biso      1.000     C          -0.138445           
         C66       1.0000    0.62210   0.02230   0.43467   Biso      1.000     C          0.646107  
         C67       1.0000    0.12090   0.17380   0.29620   Biso      1.000     C          0.664445  
         C68       1.0000    0.11250   0.08770   0.31462   Biso      1.000     C          -0.140588           
         C69       1.0000    0.63920   0.42910   0.85146   Biso      1.000     C          -0.036014           
         C70       1.0000    0.67020   0.34490   0.87279   Biso      1.000     C          0.622578  
         C71       1.0000    0.63070   0.05810   0.30130   Biso      1.000     C          -0.138815           
         C72       1.0000    0.61540   0.53990   0.72950   Biso      1.000     C          0.585195  
         C73       1.0000    0.12600   0.87130   0.26689   Biso      1.000     C          0.645389  
         C74       1.0000    0.62090   0.82620   0.29620   Biso      1.000     C          0.664445  
         C75       1.0000    0.82980   0.34490   0.12721   Biso      1.000     C          0.622578  
         C76       1.0000    0.86080   0.42910   0.14854   Biso      1.000     C          -0.036014           
         C77       1.0000    0.61250   0.58770   0.81462   Biso      1.000     C          -0.140588           
         C78       1.0000    0.62090   0.67380   0.79620   Biso      1.000     C          0.664445  
         C79       1.0000    0.11930   0.47820   0.78326   Biso      1.000     C          -0.042257           
         C80       1.0000    0.61540   0.96010   0.22950   Biso      1.000     C          0.585195  
         C81       1.0000    0.87790   0.47770   0.06533   Biso      1.000     C          0.646107  
         C82       1.0000    0.87890   0.49360   0.11818   Biso      1.000     C          -0.138445           
         C83       1.0000    0.11540   0.46010   0.72950   Biso      1.000     C          0.585195  
         C84       1.0000    0.61930   0.97820   0.28326   Biso      1.000     C          -0.042257           
         C85       1.0000    0.90950   0.64430   0.10480   Biso      1.000     C          0.608921  
         C86       1.0000    0.89520   0.57280   0.13705   Biso      1.000     C          -0.02901  
         C87       1.0000    0.60480   0.57280   0.86295   Biso      1.000     C          -0.02901  
         C88       1.0000    0.62600   0.37130   0.76689   Biso      1.000     C          0.645389  
         C89       1.0000    0.87910   0.67380   0.20380   Biso      1.000     C          0.664445  
         C90       1.0000    0.88750   0.58770   0.18538   Biso      1.000     C          -0.140588           
         C91       1.0000    0.67020   0.15510   0.37279   Biso      1.000     C          0.622578  
         C92       1.0000    0.11540   0.03990   0.22950   Biso      1.000     C          0.585195  
         C93       1.0000    0.11930   0.02180   0.28326   Biso      1.000     C          -0.042257           
         C94       1.0000    0.61250   0.91230   0.31462   Biso      1.000     C          -0.140588           
         C95       1.0000    0.59050   0.64430   0.89520   Biso      1.000     C          0.608921  
         C96       1.0000    0.61930   0.52180   0.78326   Biso      1.000     C          -0.042257           
         O1        1.0000    0.94470   0.12570   0.76886   Biso      1.000     O          -0.696791           
         O2        1.0000    0.18660   0.68800   0.77463   Biso      1.000     O          -0.675883           
         O3        1.0000    0.68660   0.18800   0.27463   Biso      1.000     O          -0.675883           
         O4        1.0000    0.55530   0.12570   0.23114   Biso      1.000     O          -0.696791           
         O5        1.0000    0.73800   0.16990   0.61904   Biso      1.000     O          -0.764182           
         O6        1.0000    0.89880   0.20340   0.62044   Biso      1.000     O          -0.568812           
         O7        1.0000    0.81340   0.18800   0.72537   Biso      1.000     O          -0.675883           
         O8        1.0000    0.76200   0.16990   0.38096   Biso      1.000     O          -0.764182           
         O9        1.0000    0.66980   0.82160   0.41671   Biso      1.000     O          -0.554334           
         O10       1.0000    0.80810   0.97440   0.78966   Biso      1.000     O          -0.692056           
         O11       1.0000    0.26200   0.66990   0.88096   Biso      1.000     O          -0.764182           
         O12       1.0000    0.05530   0.62570   0.73114   Biso      1.000     O          -0.696791           
         O13       1.0000    0.10120   0.70340   0.87956   Biso      1.000     O          -0.568812           
         O14       1.0000    0.19190   0.47440   0.71034   Biso      1.000     O          -0.692056           
         O15       1.0000    0.03450   0.42720   0.70863   Biso      1.000     O          -0.593082           
         O16       1.0000    0.18360   0.57610   0.95419   Biso      1.000     O          -0.686134           
         O17       1.0000    0.06210   0.48500   0.95718   Biso      1.000     O          -0.679784           
         O18       1.0000    0.16980   0.32160   0.91671   Biso      1.000     O          -0.554334           
         O19       1.0000    0.00250   0.33360   0.89923   Biso      1.000     O          -0.760049           
         O20       1.0000    0.68560   0.81260   0.26950   Biso      1.000     O          -0.685851           
         O21       1.0000    0.56530   0.77150   0.31014   Biso      1.000     O          -0.690423           
         O22       1.0000    0.06530   0.27150   0.81014   Biso      1.000     O          -0.690423           
         O23       1.0000    0.18560   0.31260   0.76950   Biso      1.000     O          -0.685851           
         O24       1.0000    0.50250   0.83360   0.39923   Biso      1.000     O          -0.760049           
         O25       1.0000    0.56210   0.98500   0.45718   Biso      1.000     O          -0.679784           
         O26       1.0000    0.68360   0.07610   0.45419   Biso      1.000     O          -0.686134           
         O27       1.0000    0.96550   0.92720   0.79137   Biso      1.000     O          -0.593082           
         O28       1.0000    0.60120   0.20340   0.37956   Biso      1.000     O          -0.568812           
         O29       1.0000    0.81640   0.07610   0.54581   Biso      1.000     O          -0.686134           
         O30       1.0000    0.46550   0.07280   0.79137   Biso      1.000     O          -0.593082           
         O31       1.0000    0.83020   0.82160   0.58329   Biso      1.000     O          -0.554334           
         O32       1.0000    0.93790   0.51500   0.04282   Biso      1.000     O          -0.679784           
         O33       1.0000    0.83020   0.67840   0.08329   Biso      1.000     O          -0.554334           
         O34       1.0000    0.99750   0.66640   0.10077   Biso      1.000     O          -0.760049           
         O35       1.0000    0.93470   0.72850   0.18986   Biso      1.000     O          -0.690423           
         O36       1.0000    0.81440   0.68740   0.23050   Biso      1.000     O          -0.685851           
         O37       1.0000    0.03450   0.07280   0.20863   Biso      1.000     O          -0.593082           
         O38       1.0000    0.19190   0.02560   0.21034   Biso      1.000     O          -0.692056           
         O39       1.0000    0.05530   0.87430   0.23114   Biso      1.000     O          -0.696791           
         O40       1.0000    0.18660   0.81200   0.27463   Biso      1.000     O          -0.675883           
         O41       1.0000    0.26200   0.83010   0.38096   Biso      1.000     O          -0.764182           
         O42       1.0000    0.10120   0.79660   0.37956   Biso      1.000     O          -0.568812           
         O43       1.0000    0.18360   0.92390   0.45419   Biso      1.000     O          -0.686134           
         O44       1.0000    0.06210   0.01500   0.45718   Biso      1.000     O          -0.679784           
         O45       1.0000    0.16980   0.17840   0.41671   Biso      1.000     O          -0.554334           
         O46       1.0000    0.00250   0.16640   0.39923   Biso      1.000     O          -0.760049           
         O47       1.0000    0.06530   0.22850   0.31014   Biso      1.000     O          -0.690423           
         O48       1.0000    0.18560   0.18740   0.26950   Biso      1.000     O          -0.685851           
         O49       1.0000    0.53450   0.57280   0.70863   Biso      1.000     O          -0.593082           
         O50       1.0000    0.69190   0.52560   0.71034   Biso      1.000     O          -0.692056           
         O51       1.0000    0.55530   0.37430   0.73114   Biso      1.000     O          -0.696791           
         O52       1.0000    0.68660   0.31200   0.77463   Biso      1.000     O          -0.675883           
         O53       1.0000    0.76200   0.33010   0.88096   Biso      1.000     O          -0.764182           
         O54       1.0000    0.60120   0.29660   0.87956   Biso      1.000     O          -0.568812           
         O55       1.0000    0.68360   0.42390   0.95419   Biso      1.000     O          -0.686134           
         O56       1.0000    0.56210   0.51500   0.95718   Biso      1.000     O          -0.679784           
         O57       1.0000    0.66980   0.67840   0.91671   Biso      1.000     O          -0.554334           
         O58       1.0000    0.50250   0.66640   0.89923   Biso      1.000     O          -0.760049           
         O59       1.0000    0.56530   0.72850   0.81014   Biso      1.000     O          -0.690423           
         O60       1.0000    0.68560   0.68740   0.76950   Biso      1.000     O          -0.685851           
         O61       1.0000    0.81640   0.42390   0.04581   Biso      1.000     O          -0.686134           
         O62       1.0000    0.89880   0.29660   0.12044   Biso      1.000     O          -0.568812           
         O63       1.0000    0.73800   0.33010   0.11904   Biso      1.000     O          -0.764182           
         O64       1.0000    0.81340   0.31200   0.22537   Biso      1.000     O          -0.675883           
         O65       1.0000    0.99750   0.83360   0.60077   Biso      1.000     O          -0.760049           
         O66       1.0000    0.93470   0.77150   0.68986   Biso      1.000     O          -0.690423           
         O67       1.0000    0.81440   0.81260   0.73050   Biso      1.000     O          -0.685851           
         O68       1.0000    0.46550   0.42720   0.29137   Biso      1.000     O          -0.593082           
         O69       1.0000    0.30810   0.47440   0.28966   Biso      1.000     O          -0.692056           
         O70       1.0000    0.44470   0.62570   0.26886   Biso      1.000     O          -0.696791           
         O71       1.0000    0.31340   0.68800   0.22537   Biso      1.000     O          -0.675883           
         O72       1.0000    0.23800   0.66990   0.11904   Biso      1.000     O          -0.764182           
         O73       1.0000    0.39880   0.70340   0.12044   Biso      1.000     O          -0.568812           
         O74       1.0000    0.31640   0.57610   0.04581   Biso      1.000     O          -0.686134           
         O75       1.0000    0.43790   0.48500   0.04282   Biso      1.000     O          -0.679784           
         O76       1.0000    0.33020   0.32160   0.08329   Biso      1.000     O          -0.554334           
         O77       1.0000    0.49750   0.33360   0.10077   Biso      1.000     O          -0.760049           
         O78       1.0000    0.43470   0.27150   0.18986   Biso      1.000     O          -0.690423           
         O79       1.0000    0.93790   0.98500   0.54282   Biso      1.000     O          -0.679784           
         O80       1.0000    0.31440   0.31260   0.23050   Biso      1.000     O          -0.685851           
         O81       1.0000    0.30810   0.02560   0.78966   Biso      1.000     O          -0.692056           
         O82       1.0000    0.44470   0.87430   0.76886   Biso      1.000     O          -0.696791           
         O83       1.0000    0.31340   0.81200   0.72537   Biso      1.000     O          -0.675883           
         O84       1.0000    0.23800   0.83010   0.61904   Biso      1.000     O          -0.764182           
         O85       1.0000    0.39880   0.79660   0.62044   Biso      1.000     O          -0.568812           
         O86       1.0000    0.31640   0.92390   0.54581   Biso      1.000     O          -0.686134           
         O87       1.0000    0.43790   0.01500   0.54282   Biso      1.000     O          -0.679784           
         O88       1.0000    0.33020   0.17840   0.58329   Biso      1.000     O          -0.554334           
         O89       1.0000    0.49750   0.16640   0.60077   Biso      1.000     O          -0.760049           
         O90       1.0000    0.43470   0.22850   0.68986   Biso      1.000     O          -0.690423           
         O91       1.0000    0.31440   0.18740   0.73050   Biso      1.000     O          -0.685851           
         O92       1.0000    0.96550   0.57280   0.29137   Biso      1.000     O          -0.593082           
         O93       1.0000    0.80810   0.52560   0.28966   Biso      1.000     O          -0.692056           
         O94       1.0000    0.94470   0.37430   0.26886   Biso      1.000     O          -0.696791           
         O95       1.0000    0.69190   0.97440   0.21034   Biso      1.000     O          -0.692056           
         O96       1.0000    0.53450   0.92720   0.20863   Biso      1.000     O          -0.593082 