
##########################################################################
#               Crystallographic Information Format file
#               Produced by PyCifRW module
#
#  This is a CIF file.  CIF has been adopted by the International
#  Union of Crystallography as the standard for data archiving and
#  transmission.
#
#  For information on this file format, follow the CIF links at
#  http://www.iucr.org
##########################################################################

data_image0

_cell_length_a                          9.005
_cell_length_b                          12.573
_cell_length_c                          19.675
_cell_angle_alpha                       82.313
_cell_angle_beta                        79.259
_cell_angle_gamma                       86.749
_symmetry_space_group_name_H-M          'P 1'
_symmetry_int_tables_number             1
loop_
  _symmetry_equiv_pos_as_xyz
         'x, y, z' 
loop_
  _atom_site_label
  _atom_site_occupancy
  _atom_site_fract_x
  _atom_site_fract_y
  _atom_site_fract_z
  _atom_site_thermal_displace_type
  _atom_site_B_iso_or_equiv
  _atom_site_type_symbol
  _atom_site_charge
         C1        1.0000    0.85120   0.77360   0.89960   Biso      1.000     C          0.566451  
         C2        1.0000    0.38920   0.17000   0.78000   Biso      1.000     C          -0.075357           
         C3        1.0000    0.32380   0.07320   0.80560   Biso      1.000     C          -0.087314           
         C4        1.0000    0.31340   0.99820   0.76240   Biso      1.000     C          -0.127957           
         C5        1.0000    0.99860   0.95450   0.02660   Biso      1.000     C          -0.236688           
         C6        1.0000    0.35690   0.83520   0.65290   Biso      1.000     C          -0.038378           
         C7        1.0000    0.41090   0.86190   0.00190   Biso      1.000     C          0.083696  
         C8        1.0000    0.39710   0.76390   0.71200   Biso      1.000     C          0.094699  
         C9        1.0000    0.28260   0.92730   0.00290   Biso      1.000     C          -0.215211           
         C10       1.0000    0.14290   0.88490   0.01830   Biso      1.000     C          0.195574  
         C11       1.0000    0.52080   0.78360   0.74130   Biso      1.000     C          -0.140838           
         C12       1.0000    0.13640   0.77340   0.02940   Biso      1.000     C          -0.18452  
         C13       1.0000    0.26950   0.71440   0.02640   Biso      1.000     C          0.099355  
         C14       1.0000    0.60160   0.74980   0.17220   Biso      1.000     C          0.626863  
         C15       1.0000    0.48080   0.44870   0.11730   Biso      1.000     C          0.627141  
         C16       1.0000    0.06490   0.61180   0.22700   Biso      1.000     C          -0.046438           
         C17       1.0000    0.68230   0.32710   0.26200   Biso      1.000     C          -0.154409           
         C18       1.0000    0.64120   0.39700   0.20710   Biso      1.000     C          -0.081206           
         C19       1.0000    0.44650   0.19100   0.70940   Biso      1.000     C          -0.08381  
         C20       1.0000    0.58910   0.13810   0.99810   Biso      1.000     C          0.083695  
         C21       1.0000    0.43400   0.11610   0.66600   Biso      1.000     C          -0.147413           
         C22       1.0000    0.36830   0.01830   0.69220   Biso      1.000     C          0.119899  
         C23       1.0000    0.01410   0.78040   0.27140   Biso      1.000     C          -0.13714  
         C24       1.0000    0.02860   0.53760   0.17880   Biso      1.000     C          0.591428  
         C25       1.0000    0.14960   0.82770   0.36200   Biso      1.000     C          -0.063846           
         C26       1.0000    0.14920   0.93550   0.35200   Biso      1.000     C          -0.054313           
         C27       1.0000    0.16610   0.58440   0.27030   Biso      1.000     C          -0.096652           
         C28       1.0000    0.23100   0.05530   0.16490   Biso      1.000     C          -0.107106           
         C29       1.0000    0.23380   0.98660   0.22530   Biso      1.000     C          -0.137729           
         C30       1.0000    0.13980   0.00520   0.28670   Biso      1.000     C          0.098804  
         C31       1.0000    0.52100   0.37550   0.17700   Biso      1.000     C          -0.023436           
         C32       1.0000    0.19510   0.65340   0.31360   Biso      1.000     C          -0.158422           
         C33       1.0000    0.04130   0.16430   0.22630   Biso      1.000     C          -0.093461           
         C34       1.0000    0.13660   0.14630   0.16440   Biso      1.000     C          -0.023099           
         C35       1.0000    0.14880   0.22640   0.10040   Biso      1.000     C          0.566451  
         C36       1.0000    0.00140   0.04550   0.97340   Biso      1.000     C          -0.236688           
         C37       1.0000    0.11900   0.75360   0.31480   Biso      1.000     C          0.102023  
         C38       1.0000    0.21900   0.88570   0.47420   Biso      1.000     C          -0.10303  
         C39       1.0000    0.26400   0.88850   0.53350   Biso      1.000     C          -0.105359           
         C40       1.0000    0.34870   0.94350   0.64360   Biso      1.000     C          -0.071391           
         C41       1.0000    0.04560   0.09590   0.28580   Biso      1.000     C          -0.147778           
         C42       1.0000    0.47900   0.62450   0.82300   Biso      1.000     C          -0.023437           
         C43       1.0000    0.55970   0.71510   0.79660   Biso      1.000     C          -0.095018           
         C44       1.0000    0.35880   0.60300   0.79290   Biso      1.000     C          -0.081206           
         C45       1.0000    0.44030   0.28490   0.20340   Biso      1.000     C          -0.095021           
         C46       1.0000    0.73050   0.28560   0.97360   Biso      1.000     C          0.099346  
         C47       1.0000    0.83390   0.41560   0.72970   Biso      1.000     C          -0.096663           
         C48       1.0000    0.93510   0.38820   0.77300   Biso      1.000     C          -0.046427           
         C49       1.0000    0.01260   0.28930   0.77300   Biso      1.000     C          -0.105281           
         C50       1.0000    0.86360   0.22660   0.97060   Biso      1.000     C          -0.184511           
         C51       1.0000    0.98590   0.21960   0.72860   Biso      1.000     C          -0.137136           
         C52       1.0000    0.97140   0.46240   0.82120   Biso      1.000     C          0.591427  
         C53       1.0000    0.39840   0.25020   0.82780   Biso      1.000     C          0.626863  
         C54       1.0000    0.85040   0.17230   0.63800   Biso      1.000     C          -0.063846           
         C55       1.0000    0.76900   0.94470   0.83510   Biso      1.000     C          -0.107106           
         C56       1.0000    0.85710   0.11510   0.98170   Biso      1.000     C          0.195565  
         C57       1.0000    0.76620   0.01340   0.77470   Biso      1.000     C          -0.137729           
         C58       1.0000    0.86020   0.99480   0.71330   Biso      1.000     C          0.098805  
         C59       1.0000    0.71740   0.07270   0.99710   Biso      1.000     C          -0.215202           
         C60       1.0000    0.95440   0.90410   0.71420   Biso      1.000     C          -0.147785           
         C61       1.0000    0.95870   0.83570   0.77370   Biso      1.000     C          -0.093454           
         C62       1.0000    0.86340   0.85370   0.83560   Biso      1.000     C          -0.0231   
         C63       1.0000    0.85080   0.06450   0.64800   Biso      1.000     C          -0.054313           
         C64       1.0000    0.88100   0.24640   0.68520   Biso      1.000     C          0.102022  
         C65       1.0000    0.80490   0.34660   0.68640   Biso      1.000     C          -0.158421           
         C66       1.0000    0.61080   0.83000   0.22000   Biso      1.000     C          -0.075357           
         C67       1.0000    0.47920   0.21640   0.25870   Biso      1.000     C          -0.140835           
         C68       1.0000    0.60290   0.23610   0.28800   Biso      1.000     C          0.094701  
         C69       1.0000    0.64310   0.16480   0.34710   Biso      1.000     C          -0.038379           
         C70       1.0000    0.68660   0.00180   0.23760   Biso      1.000     C          -0.127964           
         C71       1.0000    0.31770   0.67290   0.73800   Biso      1.000     C          -0.154405           
         C72       1.0000    0.67620   0.92680   0.19440   Biso      1.000     C          -0.087307           
         C73       1.0000    0.78100   0.11430   0.52580   Biso      1.000     C          -0.10303  
         C74       1.0000    0.55350   0.80900   0.29060   Biso      1.000     C          -0.08381  
         C75       1.0000    0.51920   0.55130   0.88270   Biso      1.000     C          0.627141  
         C76       1.0000    0.98740   0.71070   0.22700   Biso      1.000     C          -0.105277           
         C77       1.0000    0.63170   0.98170   0.30780   Biso      1.000     C          0.119898  
         C78       1.0000    0.65130   0.05650   0.35640   Biso      1.000     C          -0.07139  
         C79       1.0000    0.73600   0.11150   0.46650   Biso      1.000     C          -0.105359           
         C80       1.0000    0.56600   0.88390   0.33400   Biso      1.000     C          -0.147412           
         Cd1       1.0000    0.37653   0.34071   0.98261   Biso      1.000     Cd          1.029341  
         Cd2       1.0000    0.62347   0.65929   0.01739   Biso      1.000     Cd          1.029341  
         H1        1.0000    0.73530   0.36000   0.96630   Biso      1.000     H          0.094672  
         H2        1.0000    0.49330   0.25540   0.69140   Biso      1.000     H          0.111877  
         H3        1.0000    0.64110   0.73040   0.81620   Biso      1.000     H          0.11084   
         H4        1.0000    0.70840   0.99860   0.00710   Biso      1.000     H          0.125159  
         H5        1.0000    0.30470   0.54110   0.80960   Biso      1.000     H          0.121852  
         H6        1.0000    0.47010   0.13120   0.61840   Biso      1.000     H          0.116421  
         H7        1.0000    0.26890   0.93320   0.78080   Biso      1.000     H          0.122256  
         H8        1.0000    0.57780   0.84370   0.72340   Biso      1.000     H          0.107819  
         H9        1.0000    0.95590   0.26010   0.96150   Biso      1.000     H          0.143726  
         H10       1.0000    0.26570   0.63400   0.34240   Biso      1.000     H          0.116178  
         H11       1.0000    0.23570   0.65780   0.71880   Biso      1.000     H          0.113707  
         H12       1.0000    0.21620   0.51760   0.27030   Biso      1.000     H          0.123703  
         H13       1.0000    0.28580   0.05850   0.85300   Biso      1.000     H          0.111108  
         H14       1.0000    0.49500   0.10680   0.00760   Biso      1.000     H          0.088194  
         H15       1.0000    0.96120   0.84610   0.27230   Biso      1.000     H          0.114008  
         H16       1.0000    0.26470   0.64000   0.03370   Biso      1.000     H          0.094672  
         H17       1.0000    0.76430   0.34220   0.28120   Biso      1.000     H          0.113707  
         H18       1.0000    0.69530   0.45890   0.19040   Biso      1.000     H          0.121852  
         H19       1.0000    0.35890   0.26960   0.18380   Biso      1.000     H          0.11084   
         H20       1.0000    0.42220   0.15630   0.27660   Biso      1.000     H          0.107819  
         H21       1.0000    0.73110   0.06680   0.21920   Biso      1.000     H          0.122256  
         H22       1.0000    0.71420   0.94150   0.14700   Biso      1.000     H          0.111107  
         H23       1.0000    0.50670   0.74460   0.30860   Biso      1.000     H          0.111877  
         H24       1.0000    0.52990   0.86880   0.38160   Biso      1.000     H          0.116421  
         H25       1.0000    0.73430   0.36600   0.65760   Biso      1.000     H          0.116178  
         H26       1.0000    0.78380   0.48240   0.72970   Biso      1.000     H          0.123703  
         H27       1.0000    0.08170   0.27040   0.80260   Biso      1.000     H          0.112626  
         H28       1.0000    0.03880   0.15390   0.72770   Biso      1.000     H          0.114008  
         H29       1.0000    0.70660   0.95960   0.87620   Biso      1.000     H          0.10774   
         H30       1.0000    0.70010   0.07300   0.77530   Biso      1.000     H          0.106855  
         H31       1.0000    0.01670   0.88930   0.67300   Biso      1.000     H          0.104481  
         H32       1.0000    0.02570   0.77660   0.77300   Biso      1.000     H          0.112635  
         H33       1.0000    0.04410   0.73990   0.03850   Biso      1.000     H          0.143727  
         H34       1.0000    0.91830   0.72960   0.19740   Biso      1.000     H          0.112626  
         H35       1.0000    0.29160   0.00140   0.99290   Biso      1.000     H          0.125159  
         H36       1.0000    0.91400   0.91080   0.02540   Biso      1.000     H          0.119532  
         H37       1.0000    0.98230   0.98000   0.07180   Biso      1.000     H          0.12299   
         H38       1.0000    0.29340   0.04040   0.12380   Biso      1.000     H          0.10774   
         H39       1.0000    0.29990   0.92700   0.22470   Biso      1.000     H          0.106855  
         H40       1.0000    0.06330   0.40150   0.16360   Biso      1.000     H          0.406025  
         H41       1.0000    0.93670   0.59850   0.83640   Biso      1.000     H          0.406025  
         H42       1.0000    0.98330   0.11070   0.32700   Biso      1.000     H          0.104481  
         H43       1.0000    0.46130   0.65360   0.19410   Biso      1.000     H          0.428968  
         H44       1.0000    0.50500   0.89320   0.99240   Biso      1.000     H          0.088194  
         H45       1.0000    0.53870   0.34640   0.80590   Biso      1.000     H          0.428968  
         H46       1.0000    0.01770   0.02000   0.92820   Biso      1.000     H          0.122989  
         H47       1.0000    0.08600   0.08920   0.97460   Biso      1.000     H          0.119532  
         H48       1.0000    0.97430   0.22340   0.22700   Biso      1.000     H          0.112635  
         N1        1.0000    0.40450   0.75670   0.01390   Biso      1.000     N          -0.251262           
         N2        1.0000    0.59550   0.24330   0.98610   Biso      1.000     N          -0.251261           
         O1        1.0000    0.06200   0.31040   0.10280   Biso      1.000     O          -0.599653           
         O2        1.0000    0.95500   0.56440   0.13470   Biso      1.000     O          -0.488461           
         O3        1.0000    0.45480   0.34060   0.79650   Biso      1.000     O          -0.538477           
         O4        1.0000    0.24000   0.20620   0.04730   Biso      1.000     O          -0.574879           
         O5        1.0000    0.08670   0.44010   0.19210   Biso      1.000     O          -0.524218           
         O6        1.0000    0.35110   0.23440   0.89030   Biso      1.000     O          -0.486016           
         O7        1.0000    0.47690   0.45510   0.88990   Biso      1.000     O          -0.618622           
         O8        1.0000    0.52310   0.54490   0.11010   Biso      1.000     O          -0.618622           
         O9        1.0000    0.41130   0.41610   0.07660   Biso      1.000     O          -0.597385           
         O10       1.0000    0.64890   0.76560   0.10970   Biso      1.000     O          -0.486016           
         O11       1.0000    0.54520   0.65940   0.20350   Biso      1.000     O          -0.538477           
         O12       1.0000    0.04500   0.43560   0.86530   Biso      1.000     O          -0.488461           
         O13       1.0000    0.91330   0.55990   0.80790   Biso      1.000     O          -0.524218           
         O14       1.0000    0.76000   0.79380   0.95270   Biso      1.000     O          -0.574878           
         O15       1.0000    0.93800   0.68960   0.89720   Biso      1.000     O          -0.599652           
         O16       1.0000    0.58870   0.58390   0.92340   Biso      1.000     O          -0.597385           
         S1        1.0000    0.30280   0.77101   0.58784   Biso      1.000     S          0.056189  
         S2        1.0000    0.29190   0.00574   0.56664   Biso      1.000     S          0.066726  
         S3        1.0000    0.81600   0.23345   0.55584   Biso      1.000     S          0.039737  
         S4        1.0000    0.82100   0.99833   0.57984   Biso      1.000     S          0.080264  
         S5        1.0000    0.70810   0.99426   0.43336   Biso      1.000     S          0.066726  
         S6        1.0000    0.69720   0.22899   0.41216   Biso      1.000     S          0.05619   
         S7        1.0000    0.17900   0.00167   0.42016   Biso      1.000     S          0.080264  
         S8        1.0000    0.18400   0.76655   0.44416   Biso      1.000     S          0.039738 