
##########################################################################
#               Crystallographic Information Format file
#               Produced by PyCifRW module
#
#  This is a CIF file.  CIF has been adopted by the International
#  Union of Crystallography as the standard for data archiving and
#  transmission.
#
#  For information on this file format, follow the CIF links at
#  http://www.iucr.org
##########################################################################

data_image0

_cell_length_a                          18.2569
_cell_length_b                          9.5382
_cell_length_c                          16.9373
_cell_angle_alpha                       90
_cell_angle_beta                        120.434
_cell_angle_gamma                       90
_symmetry_space_group_name_H-M          'P 1'
_symmetry_int_tables_number             1
loop_
  _symmetry_equiv_pos_as_xyz
         'x, y, z' 
loop_
  _atom_site_label
  _atom_site_occupancy
  _atom_site_fract_x
  _atom_site_fract_y
  _atom_site_fract_z
  _atom_site_thermal_displace_type
  _atom_site_B_iso_or_equiv
  _atom_site_type_symbol
  _atom_site_charge
         Ba1       1.0000    0.01159   0.74678   0.99826   Biso      1.000     Ba          1.543813  
         Ba2       1.0000    0.98841   0.74678   0.50174   Biso      1.000     Ba          1.543694  
         Ba3       1.0000    0.48841   0.75322   0.00174   Biso      1.000     Ba          1.54395   
         Ba4       1.0000    0.51159   0.24678   0.99826   Biso      1.000     Ba          1.543919  
         Ba5       1.0000    0.51159   0.75322   0.49826   Biso      1.000     Ba          1.543829  
         Ba6       1.0000    0.98841   0.25322   0.00174   Biso      1.000     Ba          1.543865  
         Ba7       1.0000    0.48841   0.24678   0.50174   Biso      1.000     Ba          1.543784  
         Ba8       1.0000    0.01159   0.25322   0.49826   Biso      1.000     Ba          1.54376   
         C1        1.0000    0.39420   0.28340   0.12730   Biso      1.000     C          0.64393   
         C2        1.0000    0.88129   0.48270   0.73370   Biso      1.000     C          -0.449112           
         C3        1.0000    0.35560   0.13860   0.09550   Biso      1.000     C          -0.306492           
         C4        1.0000    0.16141   0.06570   0.08510   Biso      1.000     C          0.679788  
         C5        1.0000    0.38129   0.01730   0.23370   Biso      1.000     C          -0.449125           
         C6        1.0000    0.74064   0.50040   0.59510   Biso      1.000     C          -0.29073  
         C7        1.0000    0.89420   0.78340   0.12730   Biso      1.000     C          0.64392   
         C8        1.0000    0.85560   0.63860   0.09550   Biso      1.000     C          -0.306498           
         C9        1.0000    0.66141   0.56570   0.08510   Biso      1.000     C          0.67979   
         C10       1.0000    0.74064   0.49960   0.09510   Biso      1.000     C          -0.290731           
         C11       1.0000    0.88129   0.51730   0.23370   Biso      1.000     C          -0.449119           
         C12       1.0000    0.24064   0.99960   0.09510   Biso      1.000     C          -0.290729           
         C13       1.0000    0.66141   0.43430   0.58510   Biso      1.000     C          0.67978   
         C14       1.0000    0.89420   0.21660   0.62730   Biso      1.000     C          0.643904  
         C15       1.0000    0.60580   0.28340   0.37270   Biso      1.000     C          0.643921  
         C16       1.0000    0.64440   0.86140   0.90450   Biso      1.000     C          -0.306499           
         C17       1.0000    0.83859   0.93430   0.91490   Biso      1.000     C          0.679789  
         C18       1.0000    0.75936   0.00040   0.90490   Biso      1.000     C          -0.290735           
         C19       1.0000    0.61871   0.98270   0.76630   Biso      1.000     C          -0.449117           
         C20       1.0000    0.10580   0.21660   0.87270   Biso      1.000     C          0.643913  
         C21       1.0000    0.14440   0.36140   0.90450   Biso      1.000     C          -0.306503           
         C22       1.0000    0.85560   0.36140   0.59550   Biso      1.000     C          -0.306501           
         C23       1.0000    0.33859   0.43430   0.91490   Biso      1.000     C          0.679789  
         C24       1.0000    0.11871   0.48270   0.76630   Biso      1.000     C          -0.449113           
         C25       1.0000    0.39420   0.71660   0.62730   Biso      1.000     C          0.643907  
         C26       1.0000    0.35560   0.86140   0.59550   Biso      1.000     C          -0.306498           
         C27       1.0000    0.16141   0.93430   0.58510   Biso      1.000     C          0.679779  
         C28       1.0000    0.24064   0.00040   0.59510   Biso      1.000     C          -0.29073  
         C29       1.0000    0.38129   0.98270   0.73370   Biso      1.000     C          -0.449114           
         C30       1.0000    0.25936   0.50040   0.90490   Biso      1.000     C          -0.290736           
         C31       1.0000    0.64440   0.13860   0.40450   Biso      1.000     C          -0.306489           
         C32       1.0000    0.60580   0.71660   0.87270   Biso      1.000     C          0.643918  
         C33       1.0000    0.11871   0.51730   0.26630   Biso      1.000     C          -0.44912  
         C34       1.0000    0.14440   0.63860   0.40450   Biso      1.000     C          -0.306495           
         C35       1.0000    0.33859   0.56570   0.41490   Biso      1.000     C          0.679779  
         C36       1.0000    0.25936   0.49960   0.40490   Biso      1.000     C          -0.290723           
         C37       1.0000    0.75936   0.99960   0.40490   Biso      1.000     C          -0.290721           
         C38       1.0000    0.83859   0.06570   0.41490   Biso      1.000     C          0.679776  
         C39       1.0000    0.61871   0.01730   0.26630   Biso      1.000     C          -0.449124           
         C40       1.0000    0.10580   0.78340   0.37270   Biso      1.000     C          0.643912  
         Co1       1.0000    0.72204   0.72005   0.80499   Biso      1.000     Co          0.9658    
         Co2       1.0000    0.27796   0.27995   0.19501   Biso      1.000     Co          0.965806  
         Co3       1.0000    0.27796   0.72005   0.69501   Biso      1.000     Co          0.965808  
         Co4       1.0000    0.77796   0.22005   0.69501   Biso      1.000     Co          0.965805  
         Co5       1.0000    0.77796   0.77995   0.19501   Biso      1.000     Co          0.965793  
         Co6       1.0000    0.22204   0.77995   0.30499   Biso      1.000     Co          0.965801  
         Co7       1.0000    0.72204   0.27995   0.30499   Biso      1.000     Co          0.965804  
         Co8       1.0000    0.22204   0.22005   0.80499   Biso      1.000     Co          0.965796  
         H1        1.0000    0.43640   0.93970   0.75560   Biso      1.000     H          0.153284  
         H2        1.0000    0.38550   0.08100   0.72190   Biso      1.000     H          0.140621  
         H3        1.0000    0.76740   0.98280   0.46530   Biso      1.000     H          0.145245  
         H4        1.0000    0.89940   0.42620   0.60250   Biso      1.000     H          0.118314  
         H5        1.0000    0.10060   0.57380   0.39750   Biso      1.000     H          0.118316  
         H6        1.0000    0.73260   0.51720   0.53470   Biso      1.000     H          0.145242  
         H7        1.0000    0.74960   0.59050   0.62530   Biso      1.000     H          0.14993   
         H8        1.0000    0.88550   0.58100   0.72190   Biso      1.000     H          0.140627  
         H9        1.0000    0.93640   0.43970   0.75560   Biso      1.000     H          0.153289  
         H10       1.0000    0.18740   0.64250   0.46890   Biso      1.000     H          0.14194   
         H11       1.0000    0.26740   0.48280   0.46530   Biso      1.000     H          0.145242  
         H12       1.0000    0.31260   0.85750   0.53110   Biso      1.000     H          0.141925  
         H13       1.0000    0.23260   0.01720   0.53470   Biso      1.000     H          0.145236  
         H14       1.0000    0.68740   0.85750   0.96890   Biso      1.000     H          0.14193   
         H15       1.0000    0.76740   0.01720   0.96530   Biso      1.000     H          0.145246  
         H16       1.0000    0.75040   0.09050   0.87470   Biso      1.000     H          0.149937  
         H17       1.0000    0.61450   0.08100   0.77810   Biso      1.000     H          0.140632  
         H18       1.0000    0.56360   0.93970   0.74440   Biso      1.000     H          0.153293  
         H19       1.0000    0.10060   0.42620   0.89750   Biso      1.000     H          0.118319  
         H20       1.0000    0.18740   0.35750   0.96890   Biso      1.000     H          0.14193   
         H21       1.0000    0.26740   0.51720   0.96530   Biso      1.000     H          0.145251  
         H22       1.0000    0.25040   0.59050   0.87470   Biso      1.000     H          0.149941  
         H23       1.0000    0.11450   0.58100   0.77810   Biso      1.000     H          0.140633  
         H24       1.0000    0.06360   0.43970   0.74440   Biso      1.000     H          0.153293  
         H25       1.0000    0.06360   0.56030   0.24440   Biso      1.000     H          0.153291  
         H26       1.0000    0.11450   0.41900   0.27810   Biso      1.000     H          0.140633  
         H27       1.0000    0.39940   0.92620   0.60250   Biso      1.000     H          0.118305  
         H28       1.0000    0.25040   0.40950   0.37470   Biso      1.000     H          0.149926  
         H29       1.0000    0.24960   0.09050   0.62530   Biso      1.000     H          0.149924  
         H30       1.0000    0.60060   0.92620   0.89750   Biso      1.000     H          0.118313  
         H31       1.0000    0.81260   0.35750   0.53110   Biso      1.000     H          0.141927  
         H32       1.0000    0.31260   0.14250   0.03110   Biso      1.000     H          0.141951  
         H33       1.0000    0.68740   0.14250   0.46890   Biso      1.000     H          0.141949  
         H34       1.0000    0.60060   0.07380   0.39750   Biso      1.000     H          0.118321  
         H35       1.0000    0.75040   0.90950   0.37470   Biso      1.000     H          0.149928  
         H36       1.0000    0.61450   0.91900   0.27810   Biso      1.000     H          0.140635  
         H37       1.0000    0.93640   0.56030   0.25560   Biso      1.000     H          0.153297  
         H38       1.0000    0.88550   0.41900   0.22190   Biso      1.000     H          0.140635  
         H39       1.0000    0.56360   0.06030   0.24440   Biso      1.000     H          0.153289  
         H40       1.0000    0.39940   0.07380   0.10250   Biso      1.000     H          0.118325  
         H41       1.0000    0.73260   0.48280   0.03470   Biso      1.000     H          0.145259  
         H42       1.0000    0.81260   0.64250   0.03110   Biso      1.000     H          0.14194   
         H43       1.0000    0.89940   0.57380   0.10250   Biso      1.000     H          0.11832   
         H44       1.0000    0.43640   0.06030   0.25560   Biso      1.000     H          0.153293  
         H45       1.0000    0.38550   0.91900   0.22190   Biso      1.000     H          0.140639  
         H46       1.0000    0.74960   0.40950   0.12530   Biso      1.000     H          0.149937  
         H47       1.0000    0.23260   0.98280   0.03470   Biso      1.000     H          0.145259  
         H48       1.0000    0.24960   0.90950   0.12530   Biso      1.000     H          0.14994   
         N1        1.0000    0.68290   0.08700   0.35197   Biso      1.000     N          -0.035872           
         N2        1.0000    0.81710   0.41300   0.64803   Biso      1.000     N          -0.035877           
         N3        1.0000    0.81710   0.58700   0.14803   Biso      1.000     N          -0.035869           
         N4        1.0000    0.68290   0.91300   0.85197   Biso      1.000     N          -0.035872           
         N5        1.0000    0.18290   0.41300   0.85197   Biso      1.000     N          -0.035872           
         N6        1.0000    0.31710   0.08700   0.14803   Biso      1.000     N          -0.03587  
         N7        1.0000    0.18290   0.58700   0.35197   Biso      1.000     N          -0.035874           
         N8        1.0000    0.31710   0.91300   0.64803   Biso      1.000     N          -0.035877           
         O1        1.0000    0.16466   0.19350   0.10961   Biso      1.000     O          -0.638825           
         O2        1.0000    0.95415   0.81890   0.11754   Biso      1.000     O          -0.596707           
         O3        1.0000    0.04585   0.81890   0.38246   Biso      1.000     O          -0.596716           
         O4        1.0000    0.85843   0.86330   0.15859   Biso      1.000     O          -0.581626           
         O5        1.0000    0.59497   0.49600   0.04990   Biso      1.000     O          -0.642068           
         O6        1.0000    0.14157   0.86330   0.34141   Biso      1.000     O          -0.581645           
         O7        1.0000    0.40503   0.49600   0.45010   Biso      1.000     O          -0.642059           
         O8        1.0000    0.66466   0.69350   0.10961   Biso      1.000     O          -0.638838           
         O9        1.0000    0.76790   0.45580   0.28695   Biso      1.000     O          -0.742085           
         O10       1.0000    0.33534   0.69350   0.39039   Biso      1.000     O          -0.63885  
         O11       1.0000    0.83534   0.19350   0.39039   Biso      1.000     O          -0.638832           
         O12       1.0000    0.23210   0.45580   0.21305   Biso      1.000     O          -0.742079           
         O13       1.0000    0.04585   0.18110   0.88246   Biso      1.000     O          -0.596712           
         O14       1.0000    0.83575   0.69300   0.32032   Biso      1.000     O          -0.821762           
         O15       1.0000    0.66425   0.80700   0.67968   Biso      1.000     O          -0.821763           
         O16       1.0000    0.73210   0.04420   0.71305   Biso      1.000     O          -0.742075           
         O17       1.0000    0.83534   0.80650   0.89039   Biso      1.000     O          -0.638829           
         O18       1.0000    0.90503   0.00400   0.95010   Biso      1.000     O          -0.642057           
         O19       1.0000    0.64157   0.63670   0.84141   Biso      1.000     O          -0.581636           
         O20       1.0000    0.54585   0.68110   0.88246   Biso      1.000     O          -0.596724           
         O21       1.0000    0.16425   0.69300   0.17968   Biso      1.000     O          -0.821787           
         O22       1.0000    0.92521   0.48730   0.40891   Biso      1.000     O          -0.886418           
         O23       1.0000    0.07479   0.48730   0.09109   Biso      1.000     O          -0.886442           
         O24       1.0000    0.66425   0.19300   0.17968   Biso      1.000     O          -0.821776           
         O25       1.0000    0.57479   0.98730   0.09109   Biso      1.000     O          -0.886445           
         O26       1.0000    0.73210   0.95580   0.21305   Biso      1.000     O          -0.74206  
         O27       1.0000    0.57479   0.01270   0.59109   Biso      1.000     O          -0.886439           
         O28       1.0000    0.14157   0.13670   0.84141   Biso      1.000     O          -0.581632           
         O29       1.0000    0.92521   0.51270   0.90891   Biso      1.000     O          -0.886448           
         O30       1.0000    0.33534   0.30650   0.89039   Biso      1.000     O          -0.63883  
         O31       1.0000    0.26790   0.95580   0.28695   Biso      1.000     O          -0.742068           
         O32       1.0000    0.42521   0.01270   0.90891   Biso      1.000     O          -0.886467           
         O33       1.0000    0.33575   0.80700   0.82032   Biso      1.000     O          -0.821794           
         O34       1.0000    0.26790   0.04420   0.78695   Biso      1.000     O          -0.742068           
         O35       1.0000    0.16466   0.80650   0.60961   Biso      1.000     O          -0.638843           
         O36       1.0000    0.09497   0.00400   0.54990   Biso      1.000     O          -0.642055           
         O37       1.0000    0.35843   0.63670   0.65859   Biso      1.000     O          -0.581662           
         O38       1.0000    0.45415   0.68110   0.61754   Biso      1.000     O          -0.59672  
         O39       1.0000    0.33575   0.19300   0.32032   Biso      1.000     O          -0.821752           
         O40       1.0000    0.42521   0.98730   0.40891   Biso      1.000     O          -0.88642  
         O41       1.0000    0.40503   0.50400   0.95010   Biso      1.000     O          -0.642067           
         O42       1.0000    0.09497   0.99600   0.04990   Biso      1.000     O          -0.642034           
         O43       1.0000    0.64157   0.36330   0.34141   Biso      1.000     O          -0.581627           
         O44       1.0000    0.90503   0.99600   0.45010   Biso      1.000     O          -0.642024           
         O45       1.0000    0.85843   0.13670   0.65859   Biso      1.000     O          -0.581654           
         O46       1.0000    0.45415   0.31890   0.11754   Biso      1.000     O          -0.596714           
         O47       1.0000    0.16425   0.30700   0.67968   Biso      1.000     O          -0.821758           
         O48       1.0000    0.07479   0.51270   0.59109   Biso      1.000     O          -0.886425           
         O49       1.0000    0.95415   0.18110   0.61754   Biso      1.000     O          -0.596706           
         O50       1.0000    0.83575   0.30700   0.82032   Biso      1.000     O          -0.821787           
         O51       1.0000    0.76790   0.54420   0.78695   Biso      1.000     O          -0.742073           
         O52       1.0000    0.23210   0.54420   0.71305   Biso      1.000     O          -0.742079           
         O53       1.0000    0.66466   0.30650   0.60961   Biso      1.000     O          -0.638844           
         O54       1.0000    0.59497   0.50400   0.54990   Biso      1.000     O          -0.642061           
         O55       1.0000    0.54585   0.31890   0.38246   Biso      1.000     O          -0.596718           
         O56       1.0000    0.35843   0.36330   0.15859   Biso      1.000     O          -0.581611           
         P1        1.0000    0.35073   0.03355   0.31960   Biso      1.000     P          1.309055  
         P2        1.0000    0.85073   0.53355   0.31960   Biso      1.000     P          1.309062  
         P3        1.0000    0.85073   0.46645   0.81960   Biso      1.000     P          1.30906   
         P4        1.0000    0.35073   0.96645   0.81960   Biso      1.000     P          1.309056  
         P5        1.0000    0.14927   0.53355   0.18040   Biso      1.000     P          1.309063  
         P6        1.0000    0.64927   0.03355   0.18040   Biso      1.000     P          1.309054  
         P7        1.0000    0.64927   0.96645   0.68040   Biso      1.000     P          1.309053  
         P8        1.0000    0.14927   0.46645   0.68040   Biso      1.000     P          1.309054 