
##########################################################################
#               Crystallographic Information Format file
#               Produced by PyCifRW module
#
#  This is a CIF file.  CIF has been adopted by the International
#  Union of Crystallography as the standard for data archiving and
#  transmission.
#
#  For information on this file format, follow the CIF links at
#  http://www.iucr.org
##########################################################################

data_image0

_cell_length_a                          13.171
_cell_length_b                          13.5661
_cell_length_c                          15.1472
_cell_angle_alpha                       108.55
_cell_angle_beta                        101.691
_cell_angle_gamma                       111.933
_symmetry_space_group_name_H-M          'P 1'
_symmetry_int_tables_number             1
loop_
  _symmetry_equiv_pos_as_xyz
         'x, y, z' 
loop_
  _atom_site_label
  _atom_site_occupancy
  _atom_site_fract_x
  _atom_site_fract_y
  _atom_site_fract_z
  _atom_site_thermal_displace_type
  _atom_site_B_iso_or_equiv
  _atom_site_type_symbol
  _atom_site_charge
         C1        1.0000    0.46590   0.39920   0.91010   Biso      1.000     C          -0.09905499999999999          
         C2        1.0000    0.53410   0.60080   0.08990   Biso      1.000     C          -0.09905499999999999          
         C3        1.0000    0.57980   0.73230   0.00580   Biso      1.000     C          -0.39500799999999997          
         C4        1.0000    0.09820   0.09850   0.00800   Biso      1.000     C          -0.090574           
         C5        1.0000    0.02650   0.93250   0.04890   Biso      1.000     C          -0.10254400000000001          
         C6        1.0000    0.23430   0.03130   0.06620   Biso      1.000     C          -0.387128           
         C7        1.0000    0.65960   0.02580   0.40540   Biso      1.000     C          -0.407024           
         C8        1.0000    0.40760   0.70970   0.27620   Biso      1.000     C          -0.10439200000000001          
         C9        1.0000    0.52830   0.81450   0.34130   Biso      1.000     C          -0.11820499999999999          
         C10       1.0000    0.43990   0.94720   0.35340   Biso      1.000     C          -0.104742           
         C11       1.0000    0.53930   0.52360   0.92360   Biso      1.000     C          -0.103925           
         C12       1.0000    0.42020   0.26770   0.99420   Biso      1.000     C          -0.395007           
         C13       1.0000    0.23120   0.31770   0.65680   Biso      1.000     C          -0.148199           
         C14       1.0000    0.28350   0.29790   0.58640   Biso      1.000     C          -0.0864   
         C15       1.0000    0.36440   0.38890   0.57850   Biso      1.000     C          -0.110642           
         C16       1.0000    0.39640   0.50460   0.64170   Biso      1.000     C          -0.10864000000000001          
         C17       1.0000    0.34430   0.52700   0.71200   Biso      1.000     C          -0.063427           
         C18       1.0000    0.26200   0.43260   0.72010   Biso      1.000     C          -0.026088999999999998         
         C19       1.0000    0.37520   0.65330   0.77470   Biso      1.000     C          0.58648   
         C20       1.0000    0.20660   0.45750   0.79510   Biso      1.000     C          0.562443  
         C21       1.0000    0.46070   0.47640   0.07640   Biso      1.000     C          -0.103925           
         C22       1.0000    0.19630   0.63040   0.25850   Biso      1.000     C          -0.40689000000000003          
         C23       1.0000    0.97790   0.68680   0.63820   Biso      1.000     C          -0.397478           
         C24       1.0000    0.32130   0.83910   0.28960   Biso      1.000     C          -0.10999300000000001          
         C25       1.0000    0.03970   0.53020   0.60480   Biso      1.000     C          -0.106207           
         C26       1.0000    0.92430   0.54370   0.46640   Biso      1.000     C          -0.098122           
         C27       1.0000    0.90180   0.90150   0.99200   Biso      1.000     C          -0.090574           
         C28       1.0000    0.97350   0.06750   0.95110   Biso      1.000     C          -0.10254300000000001          
         C29       1.0000    0.76570   0.96870   0.93380   Biso      1.000     C          -0.387128           
         C30       1.0000    0.34040   0.97420   0.59460   Biso      1.000     C          -0.407024           
         C31       1.0000    0.59240   0.29030   0.72380   Biso      1.000     C          -0.10439200000000001          
         C32       1.0000    0.56010   0.05280   0.64660   Biso      1.000     C          -0.104742           
         C33       1.0000    0.67870   0.16090   0.71040   Biso      1.000     C          -0.10999400000000001          
         C34       1.0000    0.80370   0.36960   0.74150   Biso      1.000     C          -0.40689000000000003          
         C35       1.0000    0.76880   0.68230   0.34320   Biso      1.000     C          -0.148199           
         C36       1.0000    0.47170   0.18550   0.65870   Biso      1.000     C          -0.11820599999999999          
         C37       1.0000    0.07570   0.45630   0.53360   Biso      1.000     C          -0.098121           
         C38       1.0000    0.02210   0.31320   0.36180   Biso      1.000     C          -0.397478           
         C39       1.0000    0.71650   0.70210   0.41360   Biso      1.000     C          -0.0864   
         C40       1.0000    0.63560   0.61110   0.42150   Biso      1.000     C          -0.110642           
         C41       1.0000    0.60360   0.49540   0.35830   Biso      1.000     C          -0.10864000000000001          
         C42       1.0000    0.65570   0.47300   0.28800   Biso      1.000     C          -0.063427           
         C43       1.0000    0.73800   0.56740   0.27990   Biso      1.000     C          -0.026088999999999998         
         C44       1.0000    0.62480   0.34670   0.22530   Biso      1.000     C          0.58648   
         C45       1.0000    0.96030   0.46980   0.39520   Biso      1.000     C          -0.106206           
         C46       1.0000    0.79340   0.54250   0.20490   Biso      1.000     C          0.562443  
         H1        1.0000    0.97010   0.13880   0.95480   Biso      1.000     H          0.148446  
         H2        1.0000    0.75150   0.92430   0.86420   Biso      1.000     H          0.160952  
         H3        1.0000    0.71560   0.91420   0.95420   Biso      1.000     H          0.163748  
         H4        1.0000    0.28270   0.98640   0.62110   Biso      1.000     H          0.16730799999999998           
         H5        1.0000    0.45610   0.17370   0.58970   Biso      1.000     H          0.124697  
         H6        1.0000    0.60740   0.30550   0.79350   Biso      1.000     H          0.129206  
         H7        1.0000    0.59560   0.36000   0.71690   Biso      1.000     H          0.125752  
         H8        1.0000    0.95060   0.01610   0.88120   Biso      1.000     H          0.129728  
         H9        1.0000    0.32450   0.97770   0.53060   Biso      1.000     H          0.140106  
         H10       1.0000    0.87740   0.84580   0.92320   Biso      1.000     H          0.12443   
         H11       1.0000    0.08940   0.40280   0.55820   Biso      1.000     H          0.12392   
         H12       1.0000    0.41810   0.26880   0.05820   Biso      1.000     H          0.163049  
         H13       1.0000    0.33990   0.23400   0.94910   Biso      1.000     H          0.156725  
         H14       1.0000    0.48440   0.34540   0.86520   Biso      1.000     H          0.13284200000000002           
         H15       1.0000    0.38310   0.37530   0.88010   Biso      1.000     H          0.121804  
         H16       1.0000    0.37790   0.45320   0.04850   Biso      1.000     H          0.138277  
         H17       1.0000    0.47670   0.47390   0.14080   Biso      1.000     H          0.130451  
         H18       1.0000    0.03430   0.26000   0.38770   Biso      1.000     H          0.154085  
         H19       1.0000    0.09700   0.36490   0.36240   Biso      1.000     H          0.14765599999999998           
         H20       1.0000    0.14880   0.50730   0.53110   Biso      1.000     H          0.11792899999999999           
         H21       1.0000    0.89840   0.42560   0.32950   Biso      1.000     H          0.132769  
         H22       1.0000    0.84970   0.86330   0.02130   Biso      1.000     H          0.124195  
         H23       1.0000    0.41270   0.20280   0.67910   Biso      1.000     H          0.11748199999999999           
         H24       1.0000    0.03070   0.52100   0.38940   Biso      1.000     H          0.129917  
         H25       1.0000    0.54940   0.03040   0.57660   Biso      1.000     H          0.106669  
         H26       1.0000    0.24850   0.07570   0.13580   Biso      1.000     H          0.160952  
         H27       1.0000    0.28440   0.08580   0.04580   Biso      1.000     H          0.163748  
         H28       1.0000    0.55860   0.98780   0.66140   Biso      1.000     H          0.154026  
         H29       1.0000    0.67550   0.02230   0.46940   Biso      1.000     H          0.140105  
         H30       1.0000    0.39260   0.69450   0.20650   Biso      1.000     H          0.129206  
         H31       1.0000    0.40440   0.64000   0.28310   Biso      1.000     H          0.125751  
         H32       1.0000    0.54390   0.82630   0.41030   Biso      1.000     H          0.124696  
         H33       1.0000    0.58730   0.79720   0.32090   Biso      1.000     H          0.11748199999999999           
         H34       1.0000    0.44140   0.01220   0.33860   Biso      1.000     H          0.154025  
         H35       1.0000    0.45060   0.96960   0.42340   Biso      1.000     H          0.106669  
         H36       1.0000    0.25990   0.85560   0.30550   Biso      1.000     H          0.140347  
         H37       1.0000    0.02990   0.86120   0.04520   Biso      1.000     H          0.148447  
         H38       1.0000    0.30710   0.82060   0.21950   Biso      1.000     H          0.131787  
         H39       1.0000    0.20490   0.56310   0.26070   Biso      1.000     H          0.17207   
         H40       1.0000    0.17590   0.25440   0.66140   Biso      1.000     H          0.125719  
         H41       1.0000    0.26260   0.22090   0.54400   Biso      1.000     H          0.106625  
         H42       1.0000    0.10160   0.72840   0.11670   Biso      1.000     H          0.438316  
         H43       1.0000    0.39860   0.37420   0.53110   Biso      1.000     H          0.11751600000000001           
         H44       1.0000    0.08380   0.66330   0.56740   Biso      1.000     H          0.282271  
         H45       1.0000    0.45270   0.56710   0.63690   Biso      1.000     H          0.126673  
         H46       1.0000    0.43270   0.58400   0.96460   Biso      1.000     H          0.27465900000000004           
         H47       1.0000    0.09140   0.94230   0.94270   Biso      1.000     H          0.278568  
         H48       1.0000    0.53390   0.91640   0.27180   Biso      1.000     H          0.279165  
         H49       1.0000    0.33870   0.75860   0.37480   Biso      1.000     H          0.270828  
         H50       1.0000    0.15030   0.64490   0.29870   Biso      1.000     H          0.186959  
         H51       1.0000    0.04940   0.98390   0.11880   Biso      1.000     H          0.12972899999999998           
         H52       1.0000    0.71730   0.01360   0.37890   Biso      1.000     H          0.16731   
         H53       1.0000    0.15030   0.13670   0.97870   Biso      1.000     H          0.124196  
         H54       1.0000    0.69290   0.17940   0.78050   Biso      1.000     H          0.131787  
         H55       1.0000    0.84970   0.35510   0.70130   Biso      1.000     H          0.186959  
         H56       1.0000    0.79510   0.43690   0.73930   Biso      1.000     H          0.17207   
         H57       1.0000    0.82410   0.74560   0.33860   Biso      1.000     H          0.125719  
         H58       1.0000    0.73740   0.77910   0.45600   Biso      1.000     H          0.106625  
         H59       1.0000    0.89840   0.27160   0.88330   Biso      1.000     H          0.438316  
         H60       1.0000    0.60140   0.62580   0.46890   Biso      1.000     H          0.11751500000000001           
         H61       1.0000    0.12260   0.15420   0.07680   Biso      1.000     H          0.124429  
         H62       1.0000    0.54730   0.43290   0.36310   Biso      1.000     H          0.126672  
         H63       1.0000    0.56730   0.41600   0.03540   Biso      1.000     H          0.27465900000000004           
         H64       1.0000    0.90860   0.05770   0.05730   Biso      1.000     H          0.278568  
         H65       1.0000    0.46610   0.08360   0.72820   Biso      1.000     H          0.279165  
         H66       1.0000    0.91620   0.33670   0.43260   Biso      1.000     H          0.282271  
         H67       1.0000    0.96930   0.47900   0.61060   Biso      1.000     H          0.129917  
         H68       1.0000    0.66130   0.24140   0.62520   Biso      1.000     H          0.270828  
         H69       1.0000    0.66010   0.76600   0.05090   Biso      1.000     H          0.156726  
         H70       1.0000    0.51560   0.65460   0.13480   Biso      1.000     H          0.13284200000000002           
         H71       1.0000    0.61690   0.62470   0.11990   Biso      1.000     H          0.121804  
         H72       1.0000    0.62210   0.54680   0.95150   Biso      1.000     H          0.138276  
         H73       1.0000    0.58190   0.73120   0.94180   Biso      1.000     H          0.163049  
         H74       1.0000    0.96570   0.74000   0.61230   Biso      1.000     H          0.154086  
         H75       1.0000    0.52330   0.52610   0.85920   Biso      1.000     H          0.13045   
         H76       1.0000    0.10160   0.57440   0.67050   Biso      1.000     H          0.132769  
         H77       1.0000    0.74010   0.14440   0.69450   Biso      1.000     H          0.140348  
         H78       1.0000    0.85120   0.49270   0.46890   Biso      1.000     H          0.11792899999999999           
         H79       1.0000    0.90300   0.63510   0.63760   Biso      1.000     H          0.147655  
         H80       1.0000    0.91060   0.59720   0.44180   Biso      1.000     H          0.123921  
         N1        1.0000    0.31690   0.73590   0.30760   Biso      1.000     N          0.032320999999999996          
         N2        1.0000    0.53930   0.92600   0.33520   Biso      1.000     N          0.038181  
         N3        1.0000    0.11010   0.99260   0.00700   Biso      1.000     N          0.033281  
         N4        1.0000    0.01640   0.61390   0.57030   Biso      1.000     N          0.029524  
         N5        1.0000    0.68310   0.26410   0.69240   Biso      1.000     N          0.032320999999999996          
         N6        1.0000    0.46070   0.07400   0.66480   Biso      1.000     N          0.038181  
         N7        1.0000    0.88990   0.00740   0.99300   Biso      1.000     N          0.033281  
         N8        1.0000    0.48930   0.39280   0.00810   Biso      1.000     N          0.029414999999999997          
         N9        1.0000    0.98360   0.38610   0.42970   Biso      1.000     N          0.029524  
         N10       1.0000    0.51070   0.60720   0.99190   Biso      1.000     N          0.029414999999999997          
         Nd1       1.0000    0.18665   0.65034   0.92883   Biso      1.000     Nd          2.226748  
         Nd2       1.0000    0.40056   0.89534   0.84769   Biso      1.000     Nd          2.230554  
         Nd3       1.0000    0.59944   0.10466   0.15231   Biso      1.000     Nd          2.230554  
         Nd4       1.0000    0.81335   0.34966   0.07117   Biso      1.000     Nd          2.226748  
         O1        1.0000    0.52430   0.90360   0.00210   Biso      1.000     O          -0.91789  
         O2        1.0000    0.58850   0.90740   0.16790   Biso      1.000     O          -0.838074           
         O3        1.0000    0.39110   0.73770   0.03770   Biso      1.000     O          -0.8548899999999999           
         O4        1.0000    0.89600   0.55710   0.23280   Biso      1.000     O          -0.570578           
         O5        1.0000    0.73160   0.49700   0.11250   Biso      1.000     O          -0.669465           
         O6        1.0000    0.69880   0.32600   0.19070   Biso      1.000     O          -0.7247819999999999           
         O7        1.0000    0.52940   0.26520   0.21160   Biso      1.000     O          -0.5876170000000001           
         O8        1.0000    0.80900   0.40290   0.92990   Biso      1.000     O          -0.865475           
         O9        1.0000    0.98820   0.53120   0.90270   Biso      1.000     O          -0.847432           
         O10       1.0000    0.93460   0.31750   0.86280   Biso      1.000     O          -0.711225           
         O11       1.0000    0.40170   0.99260   0.14520   Biso      1.000     O          -0.831658           
         O12       1.0000    0.19970   0.82890   0.75820   Biso      1.000     O          -0.8846209999999999           
         O13       1.0000    0.37760   0.83490   0.67410   Biso      1.000     O          -0.872751           
         O14       1.0000    0.18660   0.74810   0.52580   Biso      1.000     O          -0.812866           
         O15       1.0000    0.71080   0.13210   0.04280   Biso      1.000     O          -0.9499989999999999           
         O16       1.0000    0.80750   0.18210   0.93090   Biso      1.000     O          -0.867605           
         O17       1.0000    0.59830   0.00740   0.85480   Biso      1.000     O          -0.831658           
         O18       1.0000    0.93160   0.31300   0.18670   Biso      1.000     O          -0.905797           
         O19       1.0000    0.95750   0.13710   0.18610   Biso      1.000     O          -0.8456600000000001           
         O20       1.0000    0.80030   0.17110   0.24180   Biso      1.000     O          -0.8846209999999999           
         O21       1.0000    0.47570   0.09640   0.99790   Biso      1.000     O          -0.91789  
         O22       1.0000    0.37990   0.79340   0.50010   Biso      1.000     O          -0.8586520000000001           
         O23       1.0000    0.04250   0.86290   0.81390   Biso      1.000     O          -0.8456600000000001           
         O24       1.0000    0.60890   0.26230   0.96230   Biso      1.000     O          -0.8548899999999999           
         O25       1.0000    0.41150   0.09260   0.83210   Biso      1.000     O          -0.838074           
         O26       1.0000    0.10400   0.44290   0.76720   Biso      1.000     O          -0.570578           
         O27       1.0000    0.06840   0.68700   0.81330   Biso      1.000     O          -0.905797           
         O28       1.0000    0.30120   0.67400   0.80930   Biso      1.000     O          -0.7247819999999999           
         O29       1.0000    0.47060   0.73480   0.78840   Biso      1.000     O          -0.5876170000000001           
         O30       1.0000    0.19100   0.59710   0.07010   Biso      1.000     O          -0.865475           
         O31       1.0000    0.01180   0.46880   0.09730   Biso      1.000     O          -0.847432           
         O32       1.0000    0.26840   0.50300   0.88750   Biso      1.000     O          -0.669465           
         O33       1.0000    0.62010   0.20660   0.49990   Biso      1.000     O          -0.8586520000000001           
         O34       1.0000    0.62240   0.16510   0.32590   Biso      1.000     O          -0.872751           
         O35       1.0000    0.81340   0.25190   0.47420   Biso      1.000     O          -0.812866           
         O36       1.0000    0.28920   0.86790   0.95720   Biso      1.000     O          -0.9499989999999999           
         O37       1.0000    0.19250   0.81790   0.06910   Biso      1.000     O          -0.867605           
         O38       1.0000    0.06540   0.68250   0.13720   Biso      1.000     O          -0.711225           
         P1        1.0000    0.11150   0.58872   0.12938   Biso      1.000     P          1.3869360000000002  
         P2        1.0000    0.68099   0.17503   0.42694   Biso      1.000     P          1.321337  
         P3        1.0000    0.28424   0.92108   0.06059   Biso      1.000     P          1.337713  
         P4        1.0000    0.51382   0.82560   0.05709   Biso      1.000     P          1.306733  
         P5        1.0000    0.08244   0.77349   0.76750   Biso      1.000     P          1.3723809999999999  
         P6        1.0000    0.88850   0.41128   0.87062   Biso      1.000     P          1.3869360000000002  
         P7        1.0000    0.31901   0.82497   0.57306   Biso      1.000     P          1.321337  
         P8        1.0000    0.71576   0.07892   0.93941   Biso      1.000     P          1.3377139999999998  
         P9        1.0000    0.48618   0.17440   0.94291   Biso      1.000     P          1.306733  
         P10       1.0000    0.91756   0.22651   0.23250   Biso      1.000     P          1.3723809999999999 