
##########################################################################
#               Crystallographic Information Format file
#               Produced by PyCifRW module
#
#  This is a CIF file.  CIF has been adopted by the International
#  Union of Crystallography as the standard for data archiving and
#  transmission.
#
#  For information on this file format, follow the CIF links at
#  http://www.iucr.org
##########################################################################

data_image0

_cell_length_a                          5.8821
_cell_length_b                          10.7367
_cell_length_c                          27.792
_cell_angle_alpha                       97.811
_cell_angle_beta                        90
_cell_angle_gamma                       90
_symmetry_space_group_name_H-M          'P 1'
_symmetry_int_tables_number             1
loop_
  _symmetry_equiv_pos_as_xyz
         'x, y, z' 
loop_
  _atom_site_label
  _atom_site_occupancy
  _atom_site_fract_x
  _atom_site_fract_y
  _atom_site_fract_z
  _atom_site_thermal_displace_type
  _atom_site_B_iso_or_equiv
  _atom_site_type_symbol
  _atom_site_charge
         C1        1.0000    0.34380   0.26260   0.95243   Biso      1.000     C          0.040415  
         C2        1.0000    0.33310   0.36430   0.13342   Biso      1.000     C          0.036008  
         C3        1.0000    0.23740   0.36940   0.08850   Biso      1.000     C          -0.1631   
         C4        1.0000    0.34870   0.31030   0.04750   Biso      1.000     C          0.030242  
         C5        1.0000    0.55700   0.25280   0.05297   Biso      1.000     C          -0.158046           
         C6        1.0000    0.64240   0.25170   0.09951   Biso      1.000     C          0.075334  
         C7        1.0000    0.63420   0.28500   0.89417   Biso      1.000     C          0.070728  
         C8        1.0000    0.55240   0.31160   0.94120   Biso      1.000     C          -0.155363           
         C9        1.0000    0.22870   0.18310   0.91667   Biso      1.000     C          -0.174513           
         C10       1.0000    0.22470   0.30180   0.99988   Biso      1.000     C          0.303357  
         C11       1.0000    0.32210   0.16030   0.87080   Biso      1.000     C          0.052402  
         C12       1.0000    0.33310   0.63570   0.36658   Biso      1.000     C          0.036005  
         C13       1.0000    0.23740   0.63060   0.41150   Biso      1.000     C          -0.163097           
         C14       1.0000    0.34870   0.68970   0.45250   Biso      1.000     C          0.03024   
         C15       1.0000    0.55700   0.74720   0.44703   Biso      1.000     C          -0.158048           
         C16       1.0000    0.64240   0.74830   0.40049   Biso      1.000     C          0.075329  
         C17       1.0000    0.63420   0.71500   0.60583   Biso      1.000     C          0.070728  
         C18       1.0000    0.55240   0.68840   0.55880   Biso      1.000     C          -0.155368           
         C19       1.0000    0.34380   0.73740   0.54757   Biso      1.000     C          0.040419  
         C20       1.0000    0.22470   0.69820   0.50012   Biso      1.000     C          0.303333  
         C21       1.0000    0.67790   0.16030   0.37080   Biso      1.000     C          0.052393  
         C22       1.0000    0.77130   0.18310   0.41667   Biso      1.000     C          -0.17451  
         C23       1.0000    0.65620   0.26260   0.45243   Biso      1.000     C          0.040419  
         C24       1.0000    0.77530   0.69820   0.00012   Biso      1.000     C          0.303335  
         C25       1.0000    0.66690   0.63570   0.86658   Biso      1.000     C          0.036009  
         C26       1.0000    0.76260   0.63060   0.91150   Biso      1.000     C          -0.163097           
         C27       1.0000    0.65130   0.68970   0.95250   Biso      1.000     C          0.030243  
         C28       1.0000    0.44300   0.74720   0.94703   Biso      1.000     C          -0.158048           
         C29       1.0000    0.35760   0.74830   0.90049   Biso      1.000     C          0.075335  
         C30       1.0000    0.36580   0.71500   0.10583   Biso      1.000     C          0.070729  
         C31       1.0000    0.44760   0.68840   0.05880   Biso      1.000     C          -0.155365           
         C32       1.0000    0.65620   0.73740   0.04757   Biso      1.000     C          0.04042   
         C33       1.0000    0.77130   0.81690   0.08333   Biso      1.000     C          -0.174512           
         C34       1.0000    0.67790   0.83970   0.12920   Biso      1.000     C          0.052396  
         C35       1.0000    0.77530   0.30180   0.49988   Biso      1.000     C          0.303322  
         C36       1.0000    0.66690   0.36430   0.63342   Biso      1.000     C          0.036007  
         C37       1.0000    0.76260   0.36940   0.58850   Biso      1.000     C          -0.163095           
         C38       1.0000    0.65130   0.31030   0.54750   Biso      1.000     C          0.030241  
         C39       1.0000    0.44300   0.25280   0.55297   Biso      1.000     C          -0.15805  
         C40       1.0000    0.35760   0.25170   0.59951   Biso      1.000     C          0.07533   
         C41       1.0000    0.36580   0.28500   0.39417   Biso      1.000     C          0.070727  
         C42       1.0000    0.44760   0.31160   0.44120   Biso      1.000     C          -0.155367           
         C43       1.0000    0.22870   0.81690   0.58333   Biso      1.000     C          -0.174511           
         C44       1.0000    0.32210   0.83970   0.62920   Biso      1.000     C          0.052399  
         Cu1       1.0000    0.62419   0.70816   0.29391   Biso      1.000     Cu          0.838023  
         Cu2       1.0000    0.60499   0.80296   0.71020   Biso      1.000     Cu          0.693133  
         Cu3       1.0000    0.37581   0.70816   0.79391   Biso      1.000     Cu          0.838012  
         Cu4       1.0000    0.60499   0.19704   0.78980   Biso      1.000     Cu          0.693135  
         Cu5       1.0000    0.37581   0.29184   0.70609   Biso      1.000     Cu          0.838008  
         Cu6       1.0000    0.39501   0.19704   0.28980   Biso      1.000     Cu          0.693144  
         Cu7       1.0000    0.62419   0.29184   0.20609   Biso      1.000     Cu          0.838022  
         Cu8       1.0000    0.39501   0.80296   0.21020   Biso      1.000     Cu          0.693146  
         H1        1.0000    0.63780   0.36260   0.96540   Biso      1.000     H          0.13588   
         H2        1.0000    0.08880   0.14530   0.92380   Biso      1.000     H          0.111844  
         H3        1.0000    0.24400   0.10620   0.84640   Biso      1.000     H          0.09798   
         H4        1.0000    0.25650   0.59610   0.33850   Biso      1.000     H          0.073672  
         H5        1.0000    0.09810   0.58750   0.41440   Biso      1.000     H          0.108373  
         H6        1.0000    0.36060   0.78510   0.97460   Biso      1.000     H          0.128489  
         H7        1.0000    0.78410   0.78820   0.39660   Biso      1.000     H          0.078526  
         H8        1.0000    0.77590   0.31960   0.88630   Biso      1.000     H          0.042058  
         H9        1.0000    0.63780   0.63740   0.53460   Biso      1.000     H          0.135882  
         H10       1.0000    0.08880   0.85470   0.57620   Biso      1.000     H          0.111845  
         H11       1.0000    0.24400   0.89380   0.65360   Biso      1.000     H          0.097981  
         H12       1.0000    0.63940   0.78510   0.47460   Biso      1.000     H          0.128491  
         H13       1.0000    0.77590   0.68040   0.61370   Biso      1.000     H          0.042058  
         H14       1.0000    0.78410   0.21180   0.10340   Biso      1.000     H          0.078525  
         H15       1.0000    0.09810   0.41250   0.08560   Biso      1.000     H          0.108371  
         H16       1.0000    0.90190   0.58750   0.91440   Biso      1.000     H          0.108372  
         H17       1.0000    0.74350   0.59610   0.83850   Biso      1.000     H          0.07367   
         H18       1.0000    0.22410   0.68040   0.11370   Biso      1.000     H          0.042058  
         H19       1.0000    0.36220   0.63740   0.03460   Biso      1.000     H          0.135881  
         H20       1.0000    0.91120   0.85470   0.07620   Biso      1.000     H          0.111844  
         H21       1.0000    0.75600   0.89380   0.15360   Biso      1.000     H          0.09798   
         H22       1.0000    0.74350   0.40390   0.66150   Biso      1.000     H          0.073672  
         H23       1.0000    0.90190   0.41250   0.58560   Biso      1.000     H          0.108374  
         H24       1.0000    0.36060   0.21490   0.52540   Biso      1.000     H          0.128492  
         H25       1.0000    0.21590   0.21180   0.60340   Biso      1.000     H          0.078527  
         H26       1.0000    0.22410   0.31960   0.38630   Biso      1.000     H          0.04206   
         H27       1.0000    0.36220   0.36260   0.46540   Biso      1.000     H          0.135883  
         H28       1.0000    0.91120   0.14530   0.42380   Biso      1.000     H          0.111846  
         H29       1.0000    0.75600   0.10620   0.34640   Biso      1.000     H          0.097982  
         H30       1.0000    0.25650   0.40390   0.16150   Biso      1.000     H          0.073671  
         H31       1.0000    0.63940   0.21490   0.02540   Biso      1.000     H          0.128489  
         H32       1.0000    0.21590   0.78820   0.89660   Biso      1.000     H          0.078525  
         Mo1       1.0000    0.86317   0.57913   0.19713   Biso      1.000     Mo          0.906083  
         Mo2       1.0000    0.86317   0.42087   0.30287   Biso      1.000     Mo          0.906078  
         Mo3       1.0000    0.15473   0.92365   0.31631   Biso      1.000     Mo          1.435995  
         Mo4       1.0000    0.13683   0.42087   0.80287   Biso      1.000     Mo          0.906087  
         Mo5       1.0000    0.84527   0.92365   0.81631   Biso      1.000     Mo          1.435984  
         Mo6       1.0000    0.13683   0.57913   0.69713   Biso      1.000     Mo          0.906081  
         Mo7       1.0000    0.84527   0.07635   0.68369   Biso      1.000     Mo          1.43598   
         Mo8       1.0000    0.15473   0.07635   0.18369   Biso      1.000     Mo          1.435993  
         N1        1.0000    0.46890   0.69480   0.86106   Biso      1.000     N          -0.28285  
         N2        1.0000    0.48060   0.78811   0.14058   Biso      1.000     N          -0.265753           
         N3        1.0000    0.48060   0.21189   0.35942   Biso      1.000     N          -0.265748           
         N4        1.0000    0.46890   0.30520   0.63894   Biso      1.000     N          -0.282843           
         N5        1.0000    0.51940   0.21189   0.85942   Biso      1.000     N          -0.265748           
         N6        1.0000    0.53110   0.69480   0.36106   Biso      1.000     N          -0.282852           
         N7        1.0000    0.51940   0.78811   0.64058   Biso      1.000     N          -0.265744           
         N8        1.0000    0.53110   0.30520   0.13894   Biso      1.000     N          -0.282855           
         O1        1.0000    0.34070   0.29846   0.77597   Biso      1.000     O          -0.755056           
         O2        1.0000    0.84280   0.92511   0.70274   Biso      1.000     O          -0.730579           
         O3        1.0000    0.13330   0.41760   0.71062   Biso      1.000     O          -0.720672           
         O4        1.0000    0.34070   0.70154   0.72403   Biso      1.000     O          -0.755055           
         O5        1.0000    0.97670   0.32550   0.49948   Biso      1.000     O          -0.398035           
         O6        1.0000    0.12500   0.86810   0.81121   Biso      1.000     O          -0.666578           
         O7        1.0000    0.64790   0.18760   0.71785   Biso      1.000     O          -0.787954           
         O8        1.0000    0.12500   0.13190   0.68879   Biso      1.000     O          -0.666577           
         O9        1.0000    0.84280   0.07489   0.79726   Biso      1.000     O          -0.730579           
         O10       1.0000    0.13330   0.58240   0.78938   Biso      1.000     O          -0.720675           
         O11       1.0000    0.02330   0.32550   0.99948   Biso      1.000     O          -0.398057           
         O12       1.0000    0.35210   0.81240   0.28215   Biso      1.000     O          -0.787966           
         O13       1.0000    0.87500   0.13190   0.18879   Biso      1.000     O          -0.666575           
         O14       1.0000    0.15720   0.07489   0.29726   Biso      1.000     O          -0.730578           
         O15       1.0000    0.86670   0.58240   0.28938   Biso      1.000     O          -0.72067  
         O16       1.0000    0.65930   0.29846   0.27597   Biso      1.000     O          -0.75506  
         O17       1.0000    0.02330   0.67450   0.50052   Biso      1.000     O          -0.398045           
         O18       1.0000    0.87500   0.86810   0.31121   Biso      1.000     O          -0.666575           
         O19       1.0000    0.15720   0.92511   0.20274   Biso      1.000     O          -0.730577           
         O20       1.0000    0.86670   0.41760   0.21062   Biso      1.000     O          -0.720671           
         O21       1.0000    0.65930   0.70154   0.22403   Biso      1.000     O          -0.755063           
         O22       1.0000    0.64790   0.81240   0.78215   Biso      1.000     O          -0.787955           
         O23       1.0000    0.35210   0.18760   0.21785   Biso      1.000     O          -0.787965           
         O24       1.0000    0.97670   0.67450   0.00052   Biso      1.000     O          -0.398048 