
##########################################################################
#               Crystallographic Information Format file
#               Produced by PyCifRW module
#
#  This is a CIF file.  CIF has been adopted by the International
#  Union of Crystallography as the standard for data archiving and
#  transmission.
#
#  For information on this file format, follow the CIF links at
#  http://www.iucr.org
##########################################################################

data_image0

_cell_length_a                          9.241
_cell_length_b                          11.245
_cell_length_c                          11.845
_cell_angle_alpha                       78.97
_cell_angle_beta                        74.58
_cell_angle_gamma                       87.609
_symmetry_space_group_name_H-M          'P 1'
_symmetry_int_tables_number             1
loop_
  _symmetry_equiv_pos_as_xyz
         'x, y, z' 
loop_
  _atom_site_label
  _atom_site_occupancy
  _atom_site_fract_x
  _atom_site_fract_y
  _atom_site_fract_z
  _atom_site_thermal_displace_type
  _atom_site_B_iso_or_equiv
  _atom_site_type_symbol
  _atom_site_charge
         C1        1.0000    0.69140   0.61700   0.37700   Biso      1.000     C          -0.193447           
         C2        1.0000    0.73320   0.10360   0.36530   Biso      1.000     C          0.067262  
         C3        1.0000    0.51290   0.21950   0.31100   Biso      1.000     C          -0.183289           
         C4        1.0000    0.49020   0.35200   0.32130   Biso      1.000     C          0.143903  
         C5        1.0000    0.36100   0.40780   0.29970   Biso      1.000     C          -0.21769299999999997          
         C6        1.0000    0.33760   0.53080   0.30410   Biso      1.000     C          0.144921  
         C7        1.0000    0.19350   0.58850   0.28220   Biso      1.000     C          -0.191573           
         C8        1.0000    0.02490   0.71330   0.53260   Biso      1.000     C          0.131672  
         C9        1.0000    0.08460   0.78050   0.34940   Biso      1.000     C          0.061614  
         C10       1.0000    0.44350   0.59700   0.32870   Biso      1.000     C          -0.236923           
         C11       1.0000    0.59440   0.41850   0.34860   Biso      1.000     C          -0.232531           
         C12       1.0000    0.57410   0.54170   0.35020   Biso      1.000     C          0.13958099999999998           
         C13       1.0000    0.05940   0.28550   0.89940   Biso      1.000     C          0.148073  
         C14       1.0000    0.94060   0.71450   0.10060   Biso      1.000     C          0.148071  
         C15       1.0000    0.80260   0.80260   0.22680   Biso      1.000     C          0.086383  
         C16       1.0000    0.34970   0.92220   0.44910   Biso      1.000     C          0.12125999999999999           
         C17       1.0000    0.26680   0.89640   0.63470   Biso      1.000     C          0.067262  
         C18       1.0000    0.48710   0.78050   0.68900   Biso      1.000     C          -0.183289           
         C19       1.0000    0.50980   0.64800   0.67870   Biso      1.000     C          0.143903  
         C20       1.0000    0.63900   0.59220   0.70030   Biso      1.000     C          -0.21769299999999997          
         C21       1.0000    0.66240   0.46920   0.69590   Biso      1.000     C          0.144921  
         C22       1.0000    0.80650   0.41150   0.71780   Biso      1.000     C          -0.191573           
         C23       1.0000    0.97510   0.28670   0.46740   Biso      1.000     C          0.131672  
         C24       1.0000    0.91540   0.21950   0.65060   Biso      1.000     C          0.061614  
         C25       1.0000    0.55650   0.40300   0.67130   Biso      1.000     C          -0.236923           
         C26       1.0000    0.40560   0.58150   0.65140   Biso      1.000     C          -0.232531           
         C27       1.0000    0.65030   0.07780   0.55090   Biso      1.000     C          0.12125999999999999           
         C28       1.0000    0.42590   0.45830   0.64980   Biso      1.000     C          0.13958299999999998           
         C29       1.0000    0.30860   0.38300   0.62300   Biso      1.000     C          -0.19345  
         C30       1.0000    0.19740   0.19740   0.77320   Biso      1.000     C          0.086381  
         H1        1.0000    0.32080   0.61950   0.63370   Biso      1.000     H          0.12167   
         H2        1.0000    0.64490   0.05350   0.63150   Biso      1.000     H          0.11203800000000001           
         H3        1.0000    0.79300   0.10380   0.28850   Biso      1.000     H          0.12081800000000001           
         H4        1.0000    0.56600   0.21440   0.22970   Biso      1.000     H          0.14553   
         H5        1.0000    0.41560   0.18060   0.32860   Biso      1.000     H          0.14516500000000002           
         H6        1.0000    0.28980   0.36340   0.28220   Biso      1.000     H          0.142302  
         H7        1.0000    0.12270   0.52530   0.28680   Biso      1.000     H          0.135349  
         H8        1.0000    0.21510   0.63710   0.20250   Biso      1.000     H          0.136809  
         H9        1.0000    0.98620   0.71000   0.61410   Biso      1.000     H          0.110251  
         H10       1.0000    0.10030   0.83030   0.27480   Biso      1.000     H          0.116405  
         H11       1.0000    0.42810   0.67890   0.33090   Biso      1.000     H          0.12455699999999999           
         H12       1.0000    0.67920   0.38050   0.36630   Biso      1.000     H          0.12167   
         H13       1.0000    0.75270   0.56370   0.41960   Biso      1.000     H          0.12430699999999999           
         H14       1.0000    0.24730   0.43630   0.58040   Biso      1.000     H          0.12430699999999999           
         H15       1.0000    0.64110   0.67290   0.42750   Biso      1.000     H          0.120229  
         H16       1.0000    0.75190   0.86090   0.26820   Biso      1.000     H          0.11343099999999999           
         H17       1.0000    0.35510   0.94650   0.36850   Biso      1.000     H          0.11203699999999998           
         H18       1.0000    0.20700   0.89620   0.71150   Biso      1.000     H          0.12081800000000001           
         H19       1.0000    0.43400   0.78560   0.77030   Biso      1.000     H          0.14553   
         H20       1.0000    0.58440   0.81940   0.67140   Biso      1.000     H          0.14516500000000002           
         H21       1.0000    0.71020   0.63660   0.71780   Biso      1.000     H          0.142302  
         H22       1.0000    0.87730   0.47470   0.71320   Biso      1.000     H          0.135349  
         H23       1.0000    0.78490   0.36290   0.79750   Biso      1.000     H          0.136809  
         H24       1.0000    0.01380   0.29000   0.38590   Biso      1.000     H          0.110251  
         H25       1.0000    0.89970   0.16970   0.72520   Biso      1.000     H          0.116405  
         H26       1.0000    0.57190   0.32110   0.66910   Biso      1.000     H          0.12455699999999999           
         H27       1.0000    0.24810   0.13910   0.73180   Biso      1.000     H          0.11343199999999999           
         H28       1.0000    0.99080   0.29860   0.96900   Biso      1.000     H          0.11049400000000001           
         H29       1.0000    0.00920   0.70140   0.03100   Biso      1.000     H          0.11049400000000001           
         H30       1.0000    0.35890   0.32710   0.57250   Biso      1.000     H          0.120229  
         Mn1       1.0000    0.00000   0.00000   0.00000   Biso      1.000     Mn          1.036284  
         Mn2       1.0000    0.00000   0.00000   0.50000   Biso      1.000     Mn          0.627869  
         N1        1.0000    0.10040   0.17290   0.87940   Biso      1.000     N          -0.345507           
         N2        1.0000    0.12280   0.37480   0.81430   Biso      1.000     N          -0.25358400000000003          
         N3        1.0000    0.21300   0.31540   0.73340   Biso      1.000     N          0.20036600000000002           
         N4        1.0000    0.98170   0.18600   0.54750   Biso      1.000     N          -0.274596           
         N5        1.0000    0.91030   0.38040   0.51120   Biso      1.000     N          -0.26666999999999996          
         N6        1.0000    0.87480   0.33480   0.63110   Biso      1.000     N          0.18004   
         N7        1.0000    0.45890   0.86070   0.48750   Biso      1.000     N          -0.284443           
         N8        1.0000    0.40260   0.84560   0.60830   Biso      1.000     N          0.175253  
         N9        1.0000    0.89960   0.82710   0.12060   Biso      1.000     N          -0.345507           
         N10       1.0000    0.23010   0.94680   0.53570   Biso      1.000     N          -0.26911399999999996          
         N11       1.0000    0.78700   0.68460   0.26660   Biso      1.000     N          0.20035   
         N12       1.0000    0.01830   0.81400   0.45250   Biso      1.000     N          -0.274596           
         N13       1.0000    0.08970   0.61960   0.48880   Biso      1.000     N          -0.26666999999999996          
         N14       1.0000    0.12520   0.66520   0.36890   Biso      1.000     N          0.18004   
         N15       1.0000    0.76990   0.05320   0.46430   Biso      1.000     N          -0.26911399999999996          
         N16       1.0000    0.54110   0.13930   0.51250   Biso      1.000     N          -0.284443           
         N17       1.0000    0.59740   0.15440   0.39170   Biso      1.000     N          0.175253  
         N18       1.0000    0.87720   0.62520   0.18570   Biso      1.000     N          -0.253569           
         O1        1.0000    0.14560   0.24590   0.16400   Biso      1.000     O          -0.731317           
         O2        1.0000    0.12270   0.07980   0.32240   Biso      1.000     O          -0.650254           
         O3        1.0000    0.70230   0.92420   0.86420   Biso      1.000     O          -0.731462           
         O4        1.0000    0.96500   0.93930   0.84520   Biso      1.000     O          -0.743951           
         O5        1.0000    0.29770   0.07580   0.13580   Biso      1.000     O          -0.731462           
         O6        1.0000    0.87730   0.92020   0.67760   Biso      1.000     O          -0.650254           
         O7        1.0000    0.03500   0.06070   0.15480   Biso      1.000     O          -0.743951           
         O8        1.0000    0.85440   0.75410   0.83600   Biso      1.000     O          -0.731317           
         S1        1.0000    0.85018   0.88593   0.80577   Biso      1.000     S          1.4945979999999999  
         S2        1.0000    0.14982   0.11407   0.19423   Biso      1.000     S          1.4945979999999999 