
##########################################################################
#               Crystallographic Information Format file
#               Produced by PyCifRW module
#
#  This is a CIF file.  CIF has been adopted by the International
#  Union of Crystallography as the standard for data archiving and
#  transmission.
#
#  For information on this file format, follow the CIF links at
#  http://www.iucr.org
##########################################################################

data_image0

_cell_length_a                          9.248
_cell_length_b                          11.216
_cell_length_c                          11.875
_cell_angle_alpha                       79.639
_cell_angle_beta                        74.736
_cell_angle_gamma                       88.301
_symmetry_space_group_name_H-M          'P 1'
_symmetry_int_tables_number             1
loop_
  _symmetry_equiv_pos_as_xyz
         'x, y, z' 
loop_
  _atom_site_label
  _atom_site_occupancy
  _atom_site_fract_x
  _atom_site_fract_y
  _atom_site_fract_z
  _atom_site_thermal_displace_type
  _atom_site_B_iso_or_equiv
  _atom_site_type_symbol
  _atom_site_charge
         C1        1.0000    0.69510   0.61720   0.37720   Biso      1.000     C          -0.195724           
         C2        1.0000    0.50900   0.21950   0.31210   Biso      1.000     C          -0.181855           
         C3        1.0000    0.48900   0.35140   0.32100   Biso      1.000     C          0.146081  
         C4        1.0000    0.36250   0.40830   0.29700   Biso      1.000     C          -0.21221399999999999          
         C5        1.0000    0.34340   0.53030   0.29930   Biso      1.000     C          0.14588099999999998           
         C6        1.0000    0.20430   0.59050   0.27230   Biso      1.000     C          -0.18632  
         C7        1.0000    0.02670   0.71030   0.52670   Biso      1.000     C          0.143847  
         C8        1.0000    0.08930   0.77900   0.34400   Biso      1.000     C          0.074363  
         C9        1.0000    0.44820   0.59750   0.32410   Biso      1.000     C          -0.236731           
         C10       1.0000    0.59420   0.41800   0.34950   Biso      1.000     C          -0.23791700000000002          
         C11       1.0000    0.57550   0.54210   0.35000   Biso      1.000     C          0.137871  
         C12       1.0000    0.94250   0.71070   0.10400   Biso      1.000     C          0.147593  
         C13       1.0000    0.80230   0.79970   0.22780   Biso      1.000     C          0.085312  
         C14       1.0000    0.35200   0.91890   0.45160   Biso      1.000     C          0.135193  
         C15       1.0000    0.27100   0.89290   0.63470   Biso      1.000     C          0.07535599999999999           
         C16       1.0000    0.49100   0.78050   0.68790   Biso      1.000     C          -0.181855           
         C17       1.0000    0.51100   0.64860   0.67900   Biso      1.000     C          0.146081  
         C18       1.0000    0.63750   0.59170   0.70300   Biso      1.000     C          -0.212213           
         C19       1.0000    0.65660   0.46970   0.70070   Biso      1.000     C          0.14588099999999998           
         C20       1.0000    0.79570   0.40950   0.72770   Biso      1.000     C          -0.186319           
         C21       1.0000    0.97330   0.28970   0.47330   Biso      1.000     C          0.143847  
         C22       1.0000    0.91070   0.22100   0.65600   Biso      1.000     C          0.074363  
         C23       1.0000    0.55180   0.40250   0.67590   Biso      1.000     C          -0.236731           
         C24       1.0000    0.40580   0.58200   0.65050   Biso      1.000     C          -0.23791700000000002          
         C25       1.0000    0.42450   0.45790   0.65000   Biso      1.000     C          0.137872  
         C26       1.0000    0.30490   0.38280   0.62280   Biso      1.000     C          -0.195725           
         C27       1.0000    0.05750   0.28930   0.89600   Biso      1.000     C          0.147595  
         C28       1.0000    0.19770   0.20030   0.77220   Biso      1.000     C          0.085311  
         C29       1.0000    0.72900   0.10710   0.36530   Biso      1.000     C          0.07535499999999999           
         C30       1.0000    0.64800   0.08110   0.54840   Biso      1.000     C          0.135194  
         Cd1       1.0000    0.00000   0.00000   0.00000   Biso      1.000     Cd          1.0247680000000001  
         Cd2       1.0000    0.00000   0.00000   0.50000   Biso      1.000     Cd          0.863441  
         H1        1.0000    0.24890   0.14120   0.73230   Biso      1.000     H          0.115302  
         H2        1.0000    0.98710   0.30310   0.96420   Biso      1.000     H          0.111811  
         H3        1.0000    0.78940   0.10860   0.28880   Biso      1.000     H          0.120749  
         H4        1.0000    0.56050   0.21300   0.23100   Biso      1.000     H          0.146421  
         H5        1.0000    0.41110   0.18080   0.33070   Biso      1.000     H          0.14715   
         H6        1.0000    0.29050   0.36410   0.27930   Biso      1.000     H          0.14310699999999998           
         H7        1.0000    0.13410   0.52850   0.27080   Biso      1.000     H          0.134928  
         H8        1.0000    0.23180   0.64120   0.19430   Biso      1.000     H          0.13826   
         H9        1.0000    0.98720   0.70650   0.60780   Biso      1.000     H          0.11211199999999999           
         H10       1.0000    0.10560   0.82960   0.27050   Biso      1.000     H          0.11240599999999999           
         H11       1.0000    0.43470   0.68000   0.32360   Biso      1.000     H          0.12480699999999999           
         H12       1.0000    0.67750   0.37990   0.36840   Biso      1.000     H          0.121982  
         H13       1.0000    0.75600   0.56370   0.41870   Biso      1.000     H          0.127155  
         H14       1.0000    0.64640   0.67330   0.42800   Biso      1.000     H          0.11951700000000001           
         H15       1.0000    0.01290   0.69690   0.03580   Biso      1.000     H          0.111811  
         H16       1.0000    0.64370   0.05810   0.62850   Biso      1.000     H          0.105806  
         H17       1.0000    0.35630   0.94190   0.37150   Biso      1.000     H          0.105807  
         H18       1.0000    0.75110   0.85880   0.26770   Biso      1.000     H          0.115302  
         H19       1.0000    0.35360   0.32670   0.57200   Biso      1.000     H          0.11951700000000001           
         H20       1.0000    0.24400   0.43630   0.58130   Biso      1.000     H          0.127155  
         H21       1.0000    0.56530   0.32000   0.67640   Biso      1.000     H          0.12480699999999999           
         H22       1.0000    0.89440   0.17040   0.72950   Biso      1.000     H          0.11240599999999999           
         H23       1.0000    0.01280   0.29350   0.39220   Biso      1.000     H          0.112113  
         H24       1.0000    0.32250   0.62010   0.63160   Biso      1.000     H          0.121982  
         H25       1.0000    0.86590   0.47150   0.72920   Biso      1.000     H          0.134928  
         H26       1.0000    0.70950   0.63590   0.72070   Biso      1.000     H          0.14310799999999999           
         H27       1.0000    0.58890   0.81920   0.66930   Biso      1.000     H          0.14715   
         H28       1.0000    0.43950   0.78700   0.76900   Biso      1.000     H          0.146421  
         H29       1.0000    0.21060   0.89140   0.71120   Biso      1.000     H          0.12074800000000001           
         H30       1.0000    0.76820   0.35880   0.80570   Biso      1.000     H          0.138259  
         N1        1.0000    0.40530   0.84540   0.60790   Biso      1.000     N          0.179988  
         N2        1.0000    0.12060   0.37750   0.81080   Biso      1.000     N          -0.25358800000000004          
         N3        1.0000    0.21140   0.31670   0.73130   Biso      1.000     N          0.21118699999999999           
         N4        1.0000    0.97790   0.18890   0.55470   Biso      1.000     N          -0.320918           
         N5        1.0000    0.90840   0.37990   0.51940   Biso      1.000     N          -0.27008000000000004          
         N6        1.0000    0.86920   0.33500   0.63960   Biso      1.000     N          0.17660599999999999           
         N7        1.0000    0.23500   0.94320   0.53560   Biso      1.000     N          -0.311039           
         N8        1.0000    0.10080   0.17780   0.87850   Biso      1.000     N          -0.32096399999999997          
         N9        1.0000    0.46090   0.86100   0.48720   Biso      1.000     N          -0.290056           
         N10       1.0000    0.89920   0.82220   0.12150   Biso      1.000     N          -0.32096399999999997          
         N11       1.0000    0.09160   0.62010   0.48060   Biso      1.000     N          -0.27008000000000004          
         N12       1.0000    0.78860   0.68330   0.26870   Biso      1.000     N          0.211175  
         N13       1.0000    0.02210   0.81110   0.44530   Biso      1.000     N          -0.320918           
         N14       1.0000    0.13080   0.66500   0.36040   Biso      1.000     N          0.17660599999999999           
         N15       1.0000    0.76500   0.05680   0.46440   Biso      1.000     N          -0.311039           
         N16       1.0000    0.53910   0.13900   0.51280   Biso      1.000     N          -0.290058           
         N17       1.0000    0.59470   0.15460   0.39210   Biso      1.000     N          0.179991  
         N18       1.0000    0.87940   0.62250   0.18920   Biso      1.000     N          -0.253575           
         O1        1.0000    0.14810   0.24830   0.15990   Biso      1.000     O          -0.757637           
         O2        1.0000    0.14520   0.09160   0.31800   Biso      1.000     O          -0.706083           
         O3        1.0000    0.70130   0.91310   0.87510   Biso      1.000     O          -0.760441           
         O4        1.0000    0.96810   0.94030   0.83190   Biso      1.000     O          -0.757794           
         O5        1.0000    0.03190   0.05970   0.16810   Biso      1.000     O          -0.757794           
         O6        1.0000    0.85480   0.90840   0.68200   Biso      1.000     O          -0.706083           
         O7        1.0000    0.85190   0.75170   0.84010   Biso      1.000     O          -0.757636           
         O8        1.0000    0.29870   0.08690   0.12490   Biso      1.000     O          -0.76044  
         S1        1.0000    0.84560   0.88110   0.80690   Biso      1.000     S          1.514463  
         S2        1.0000    0.15440   0.11890   0.19310   Biso      1.000     S          1.514464 