
##########################################################################
#               Crystallographic Information Format file
#               Produced by PyCifRW module
#
#  This is a CIF file.  CIF has been adopted by the International
#  Union of Crystallography as the standard for data archiving and
#  transmission.
#
#  For information on this file format, follow the CIF links at
#  http://www.iucr.org
##########################################################################

data_image0

_cell_length_a                          12.889
_cell_length_b                          15.266
_cell_length_c                          10.389
_cell_angle_alpha                       90
_cell_angle_beta                        118.06
_cell_angle_gamma                       90
_symmetry_space_group_name_H-M          'P 1'
_symmetry_int_tables_number             1
loop_
  _symmetry_equiv_pos_as_xyz
         'x, y, z' 
loop_
  _atom_site_label
  _atom_site_occupancy
  _atom_site_fract_x
  _atom_site_fract_y
  _atom_site_fract_z
  _atom_site_thermal_displace_type
  _atom_site_B_iso_or_equiv
  _atom_site_type_symbol
  _atom_site_charge
         Ag1       1.0000    0.36091   0.85059   0.14104   Biso      1.000     Ag          0.384259  
         Ag2       1.0000    0.07313   0.18062   0.42641   Biso      1.000     Ag          0.429846  
         Ag3       1.0000    0.63909   0.85059   0.35896   Biso      1.000     Ag          0.384259  
         Ag4       1.0000    0.92687   0.18062   0.07359   Biso      1.000     Ag          0.429846  
         Ag5       1.0000    0.86091   0.64941   0.64104   Biso      1.000     Ag          0.384259  
         Ag6       1.0000    0.13909   0.64941   0.85896   Biso      1.000     Ag          0.384259  
         Ag7       1.0000    0.63909   0.14941   0.85896   Biso      1.000     Ag          0.384259  
         Ag8       1.0000    0.36091   0.14941   0.64104   Biso      1.000     Ag          0.384259  
         Ag9       1.0000    0.42687   0.31938   0.57359   Biso      1.000     Ag          0.429846  
         Ag10      1.0000    0.13909   0.35059   0.35896   Biso      1.000     Ag          0.384259  
         Ag11      1.0000    0.57313   0.68062   0.42641   Biso      1.000     Ag          0.429846  
         Ag12      1.0000    0.86091   0.35059   0.14104   Biso      1.000     Ag          0.384259  
         Ag13      1.0000    0.42687   0.68062   0.07359   Biso      1.000     Ag          0.429846  
         Ag14      1.0000    0.57313   0.31938   0.92641   Biso      1.000     Ag          0.429846  
         Ag15      1.0000    0.92687   0.81938   0.57359   Biso      1.000     Ag          0.429846  
         Ag16      1.0000    0.07313   0.81938   0.92641   Biso      1.000     Ag          0.429846  
         C1        1.0000    0.28340   0.95730   0.69510   Biso      1.000     C          0.059574  
         C2        1.0000    0.28400   0.86670   0.70160   Biso      1.000     C          -0.039685000000000005         
         C3        1.0000    0.22550   0.82070   0.78010   Biso      1.000     C          0.571394  
         C4        1.0000    0.78340   0.45730   0.69510   Biso      1.000     C          0.059574  
         C5        1.0000    0.10840   0.63600   0.43190   Biso      1.000     C          -0.056674           
         C6        1.0000    0.39160   0.86400   0.56810   Biso      1.000     C          -0.056674           
         C7        1.0000    0.38470   0.95450   0.56420   Biso      1.000     C          0.058223000000000004          
         C8        1.0000    0.45840   0.81850   0.50070   Biso      1.000     C          0.581703  
         C9        1.0000    0.71600   0.86670   0.79840   Biso      1.000     C          -0.039686           
         C10       1.0000    0.33980   0.81980   0.64010   Biso      1.000     C          -0.06754600000000001          
         C11       1.0000    0.77450   0.82070   0.71990   Biso      1.000     C          0.571394  
         C12       1.0000    0.04160   0.31850   0.99930   Biso      1.000     C          0.581703  
         C13       1.0000    0.16020   0.68020   0.35990   Biso      1.000     C          -0.067553           
         C14       1.0000    0.27450   0.67930   0.21990   Biso      1.000     C          0.571393  
         C15       1.0000    0.21600   0.63330   0.29840   Biso      1.000     C          -0.039678           
         C16       1.0000    0.21660   0.54270   0.30490   Biso      1.000     C          0.059575  
         C17       1.0000    0.54160   0.81850   0.99930   Biso      1.000     C          0.581703  
         C18       1.0000    0.04160   0.68150   0.49930   Biso      1.000     C          0.581703  
         C19       1.0000    0.61530   0.95450   0.93580   Biso      1.000     C          0.058223000000000004          
         C20       1.0000    0.45840   0.18150   0.00070   Biso      1.000     C          0.581703  
         C21       1.0000    0.38470   0.04550   0.06420   Biso      1.000     C          0.058223000000000004          
         C22       1.0000    0.39160   0.13600   0.06810   Biso      1.000     C          -0.056673           
         C23       1.0000    0.33980   0.18020   0.14010   Biso      1.000     C          -0.067553           
         C24       1.0000    0.22550   0.17930   0.28010   Biso      1.000     C          0.571393  
         C25       1.0000    0.28400   0.13330   0.20160   Biso      1.000     C          -0.039678           
         C26       1.0000    0.28340   0.04270   0.19510   Biso      1.000     C          0.059575  
         C27       1.0000    0.60840   0.86400   0.93190   Biso      1.000     C          -0.056674           
         C28       1.0000    0.66020   0.81980   0.85990   Biso      1.000     C          -0.06754600000000001          
         C29       1.0000    0.11530   0.45450   0.93580   Biso      1.000     C          0.058223000000000004          
         C30       1.0000    0.78400   0.36670   0.70160   Biso      1.000     C          -0.039685000000000005         
         C31       1.0000    0.71660   0.04270   0.30490   Biso      1.000     C          0.059574  
         C32       1.0000    0.78340   0.54270   0.19510   Biso      1.000     C          0.059574  
         C33       1.0000    0.78400   0.63330   0.20160   Biso      1.000     C          -0.039685000000000005         
         C34       1.0000    0.72550   0.67930   0.28010   Biso      1.000     C          0.571394  
         C35       1.0000    0.83980   0.68020   0.14010   Biso      1.000     C          -0.067547           
         C36       1.0000    0.89160   0.63600   0.06810   Biso      1.000     C          -0.056674           
         C37       1.0000    0.88470   0.54550   0.06420   Biso      1.000     C          0.058223000000000004          
         C38       1.0000    0.95840   0.68150   0.00070   Biso      1.000     C          0.581703  
         C39       1.0000    0.71660   0.95730   0.80490   Biso      1.000     C          0.059575  
         C40       1.0000    0.95840   0.31850   0.50070   Biso      1.000     C          0.581703  
         C41       1.0000    0.88470   0.45450   0.56420   Biso      1.000     C          0.058223000000000004          
         C42       1.0000    0.10840   0.36400   0.93190   Biso      1.000     C          -0.056673           
         C43       1.0000    0.71600   0.13330   0.29840   Biso      1.000     C          -0.039684           
         C44       1.0000    0.77450   0.17930   0.21990   Biso      1.000     C          0.571394  
         C45       1.0000    0.66020   0.18020   0.35990   Biso      1.000     C          -0.06754600000000001          
         C46       1.0000    0.60840   0.13600   0.43190   Biso      1.000     C          -0.056674           
         C47       1.0000    0.11530   0.54550   0.43580   Biso      1.000     C          0.058223000000000004          
         C48       1.0000    0.21660   0.45730   0.80490   Biso      1.000     C          0.059574  
         C49       1.0000    0.61530   0.04550   0.43580   Biso      1.000     C          0.058223000000000004          
         C50       1.0000    0.72550   0.32070   0.78010   Biso      1.000     C          0.571394  
         C51       1.0000    0.54160   0.18150   0.49930   Biso      1.000     C          0.581703  
         C52       1.0000    0.83980   0.31980   0.64010   Biso      1.000     C          -0.06754600000000001          
         C53       1.0000    0.89160   0.36400   0.56810   Biso      1.000     C          -0.056673           
         C54       1.0000    0.16020   0.31980   0.85990   Biso      1.000     C          -0.067553           
         C55       1.0000    0.21600   0.36670   0.79840   Biso      1.000     C          -0.039677           
         C56       1.0000    0.27450   0.32070   0.71990   Biso      1.000     C          0.571393  
         H1        1.0000    0.84300   0.74100   0.14630   Biso      1.000     H          0.13511800000000002           
         H2        1.0000    0.58310   0.98480   0.98610   Biso      1.000     H          0.09858099999999999           
         H3        1.0000    0.08310   0.51520   0.48610   Biso      1.000     H          0.09858099999999999           
         H4        1.0000    0.25370   0.51110   0.26160   Biso      1.000     H          0.107951  
         H5        1.0000    0.74630   0.51110   0.23840   Biso      1.000     H          0.107951  
         H6        1.0000    0.15700   0.25900   0.85370   Biso      1.000     H          0.13511800000000002           
         H7        1.0000    0.75370   0.98890   0.76160   Biso      1.000     H          0.107951  
         H8        1.0000    0.15700   0.74100   0.35370   Biso      1.000     H          0.13511800000000002           
         H9        1.0000    0.74630   0.48890   0.73840   Biso      1.000     H          0.107951  
         H10       1.0000    0.25370   0.48890   0.76160   Biso      1.000     H          0.107951  
         H11       1.0000    0.41690   0.98480   0.51390   Biso      1.000     H          0.09858099999999999           
         H12       1.0000    0.41690   0.01520   0.01390   Biso      1.000     H          0.09858099999999999           
         H13       1.0000    0.34300   0.24100   0.14630   Biso      1.000     H          0.13511800000000002           
         H14       1.0000    0.91690   0.48480   0.51390   Biso      1.000     H          0.09858099999999999           
         H15       1.0000    0.24630   0.98890   0.73840   Biso      1.000     H          0.107951  
         H16       1.0000    0.24630   0.01110   0.23840   Biso      1.000     H          0.107951  
         H17       1.0000    0.84300   0.25900   0.64630   Biso      1.000     H          0.13511800000000002           
         H18       1.0000    0.75370   0.01110   0.26160   Biso      1.000     H          0.107951  
         H19       1.0000    0.65700   0.75900   0.85370   Biso      1.000     H          0.13511800000000002           
         H20       1.0000    0.34300   0.75900   0.64630   Biso      1.000     H          0.13511800000000002           
         H21       1.0000    0.65700   0.24100   0.35370   Biso      1.000     H          0.13511800000000002           
         H22       1.0000    0.58310   0.01520   0.48610   Biso      1.000     H          0.09858099999999999           
         H23       1.0000    0.91690   0.51520   0.01390   Biso      1.000     H          0.09858099999999999           
         H24       1.0000    0.08310   0.48480   0.98610   Biso      1.000     H          0.09858099999999999           
         N1        1.0000    0.66550   0.00050   0.87160   Biso      1.000     N          -0.181336           
         N2        1.0000    0.33450   0.00050   0.62840   Biso      1.000     N          -0.181336           
         N3        1.0000    0.33450   0.99950   0.12840   Biso      1.000     N          -0.181336           
         N4        1.0000    0.83450   0.50050   0.62840   Biso      1.000     N          -0.181336           
         N5        1.0000    0.16550   0.50050   0.87160   Biso      1.000     N          -0.181336           
         N6        1.0000    0.66550   0.99950   0.37160   Biso      1.000     N          -0.181336           
         N7        1.0000    0.83450   0.49950   0.12840   Biso      1.000     N          -0.181336           
         N8        1.0000    0.16550   0.49950   0.37160   Biso      1.000     N          -0.181336           
         O1        1.0000    0.75830   0.74090   0.70270   Biso      1.000     O          -0.5249560000000001           
         O2        1.0000    0.52970   0.73800   0.97970   Biso      1.000     O          -0.469913           
         O3        1.0000    0.50300   0.86490   0.06590   Biso      1.000     O          -0.554687           
         O4        1.0000    0.66690   0.36830   0.81920   Biso      1.000     O          -0.531853           
         O5        1.0000    0.74170   0.24090   0.79730   Biso      1.000     O          -0.5249560000000001           
         O6        1.0000    0.66690   0.63170   0.31920   Biso      1.000     O          -0.531853           
         O7        1.0000    0.49700   0.86490   0.43410   Biso      1.000     O          -0.554687           
         O8        1.0000    0.00300   0.63510   0.56590   Biso      1.000     O          -0.554687           
         O9        1.0000    0.74170   0.75910   0.29730   Biso      1.000     O          -0.5249560000000001           
         O10       1.0000    0.97030   0.76200   0.02030   Biso      1.000     O          -0.469913           
         O11       1.0000    0.99700   0.63510   0.93410   Biso      1.000     O          -0.554687           
         O12       1.0000    0.83310   0.13170   0.18080   Biso      1.000     O          -0.531853           
         O13       1.0000    0.75830   0.25910   0.20270   Biso      1.000     O          -0.5249560000000001           
         O14       1.0000    0.52970   0.26200   0.47970   Biso      1.000     O          -0.469913           
         O15       1.0000    0.50300   0.13510   0.56590   Biso      1.000     O          -0.554687           
         O16       1.0000    0.33310   0.36830   0.68080   Biso      1.000     O          -0.531853           
         O17       1.0000    0.25830   0.24090   0.70270   Biso      1.000     O          -0.5249560000000001           
         O18       1.0000    0.02970   0.23800   0.97970   Biso      1.000     O          -0.469913           
         O19       1.0000    0.83310   0.86830   0.68080   Biso      1.000     O          -0.531853           
         O20       1.0000    0.00300   0.36490   0.06590   Biso      1.000     O          -0.554687           
         O21       1.0000    0.24170   0.74090   0.79730   Biso      1.000     O          -0.5249560000000001           
         O22       1.0000    0.47030   0.73800   0.52030   Biso      1.000     O          -0.469913           
         O23       1.0000    0.97030   0.23800   0.52030   Biso      1.000     O          -0.469913           
         O24       1.0000    0.16690   0.13170   0.31920   Biso      1.000     O          -0.531853           
         O25       1.0000    0.24170   0.25910   0.29730   Biso      1.000     O          -0.5249560000000001           
         O26       1.0000    0.47030   0.26200   0.02030   Biso      1.000     O          -0.469913           
         O27       1.0000    0.49700   0.13510   0.93410   Biso      1.000     O          -0.554687           
         O28       1.0000    0.33310   0.63170   0.18080   Biso      1.000     O          -0.531853           
         O29       1.0000    0.25830   0.75910   0.20270   Biso      1.000     O          -0.5249560000000001           
         O30       1.0000    0.02970   0.76200   0.47970   Biso      1.000     O          -0.469913           
         O31       1.0000    0.16690   0.86830   0.81920   Biso      1.000     O          -0.531853           
         O32       1.0000    0.99700   0.36490   0.43410   Biso      1.000     O          -0.554687 