
##########################################################################
#               Crystallographic Information Format file
#               Produced by PyCifRW module
#
#  This is a CIF file.  CIF has been adopted by the International
#  Union of Crystallography as the standard for data archiving and
#  transmission.
#
#  For information on this file format, follow the CIF links at
#  http://www.iucr.org
##########################################################################

data_image0

_cell_length_a                          10.15
_cell_length_b                          11.0784
_cell_length_c                          13.878
_cell_angle_alpha                       107.373
_cell_angle_beta                        92.242
_cell_angle_gamma                       115.042
_symmetry_space_group_name_H-M          'P 1'
_symmetry_int_tables_number             1
loop_
  _symmetry_equiv_pos_as_xyz
         'x, y, z' 
loop_
  _atom_site_label
  _atom_site_occupancy
  _atom_site_fract_x
  _atom_site_fract_y
  _atom_site_fract_z
  _atom_site_thermal_displace_type
  _atom_site_B_iso_or_equiv
  _atom_site_type_symbol
  _atom_site_charge
         C1        1.0000    0.12190   0.11720   0.48930   Biso      1.000     C          -0.038243           
         C2        1.0000    0.04830   0.54040   0.60690   Biso      1.000     C          0.108527  
         C3        1.0000    0.09510   0.49290   0.43480   Biso      1.000     C          -0.15245  
         C4        1.0000    0.14620   0.53410   0.53860   Biso      1.000     C          -0.043198           
         C5        1.0000    0.30160   0.56480   0.57440   Biso      1.000     C          0.5923609999999999  
         C6        1.0000    0.01490   0.94700   0.57770   Biso      1.000     C          0.11075299999999999           
         C7        1.0000    0.86760   0.93710   0.43470   Biso      1.000     C          -0.146948           
         C8        1.0000    0.87810   0.88280   0.51070   Biso      1.000     C          -0.038245999999999995         
         C9        1.0000    0.74000   0.75760   0.51330   Biso      1.000     C          0.614537  
         C10       1.0000    0.13890   0.99940   0.01170   Biso      1.000     C          0.11221400000000001           
         C11       1.0000    0.97890   0.10500   0.06810   Biso      1.000     C          -0.140566           
         C12       1.0000    0.26000   0.24240   0.48670   Biso      1.000     C          0.614537  
         C13       1.0000    0.13240   0.06290   0.56530   Biso      1.000     C          -0.146952           
         C14       1.0000    0.98510   0.05300   0.42230   Biso      1.000     C          0.110746  
         C15       1.0000    0.69840   0.43520   0.42560   Biso      1.000     C          0.5923609999999999  
         C16       1.0000    0.85380   0.46590   0.46140   Biso      1.000     C          -0.043202           
         C17       1.0000    0.90490   0.50710   0.56520   Biso      1.000     C          -0.152446           
         C18       1.0000    0.95170   0.45960   0.39310   Biso      1.000     C          0.108526  
         C19       1.0000    0.76820   0.77310   0.82790   Biso      1.000     C          0.574229  
         C20       1.0000    0.88390   0.89300   0.91810   Biso      1.000     C          -0.05682  
         C21       1.0000    0.86110   0.00060   0.98830   Biso      1.000     C          0.112223  
         C22       1.0000    0.02110   0.89500   0.93190   Biso      1.000     C          -0.140559           
         C23       1.0000    0.23180   0.22690   0.17210   Biso      1.000     C          0.574228  
         C24       1.0000    0.11610   0.10700   0.08190   Biso      1.000     C          -0.056813999999999996         
         Eu1       1.0000    0.44153   0.45346   0.34788   Biso      1.000     Eu          1.392499  
         Eu2       1.0000    0.55847   0.54654   0.65212   Biso      1.000     Eu          1.392499  
         H1        1.0000    0.00620   0.41850   0.21920   Biso      1.000     H          0.138957  
         H2        1.0000    0.60170   0.91310   0.91350   Biso      1.000     H          0.182202  
         H3        1.0000    0.77560   0.89330   0.38850   Biso      1.000     H          0.137018  
         H4        1.0000    0.96430   0.17830   0.11540   Biso      1.000     H          0.11768699999999999           
         H5        1.0000    0.94920   0.80650   0.69070   Biso      1.000     H          0.158247  
         H6        1.0000    0.99380   0.58150   0.78080   Biso      1.000     H          0.138957  
         H7        1.0000    0.16130   0.48690   0.38920   Biso      1.000     H          0.12724000000000002           
         H8        1.0000    0.22440   0.10670   0.61150   Biso      1.000     H          0.137018  
         H9        1.0000    0.83870   0.51310   0.61080   Biso      1.000     H          0.12724000000000002           
         H10       1.0000    0.03570   0.82170   0.88460   Biso      1.000     H          0.11768699999999999           
         H11       1.0000    0.05080   0.19350   0.30930   Biso      1.000     H          0.158246  
         H12       1.0000    0.39830   0.08690   0.08650   Biso      1.000     H          0.182202  
         O1        1.0000    0.38510   0.55380   0.51020   Biso      1.000     O          -0.647658           
         O2        1.0000    0.61490   0.44620   0.48980   Biso      1.000     O          -0.647658           
         O3        1.0000    0.65380   0.40400   0.33150   Biso      1.000     O          -0.567314           
         O4        1.0000    0.27880   0.26220   0.40230   Biso      1.000     O          -0.587968           
         O5        1.0000    0.34850   0.31880   0.57130   Biso      1.000     O          -0.612532           
         O6        1.0000    0.35160   0.22430   0.19700   Biso      1.000     O          -0.56698  
         O7        1.0000    0.20550   0.32700   0.22200   Biso      1.000     O          -0.640976           
         O8        1.0000    0.34620   0.59600   0.66850   Biso      1.000     O          -0.567314           
         O9        1.0000    0.64840   0.77570   0.80300   Biso      1.000     O          -0.56698  
         O10       1.0000    0.65150   0.68120   0.42870   Biso      1.000     O          -0.612532           
         O11       1.0000    0.79450   0.67300   0.77800   Biso      1.000     O          -0.640976           
         O12       1.0000    0.72120   0.73780   0.59770   Biso      1.000     O          -0.587968           
         S1        1.0000    0.69170   0.01025   0.98519   Biso      1.000     S          -0.085011           
         S2        1.0000    0.90076   0.41029   0.25825   Biso      1.000     S          -0.032628           
         S3        1.0000    0.93934   0.11110   0.32603   Biso      1.000     S          -0.047179           
         S4        1.0000    0.09924   0.58971   0.74175   Biso      1.000     S          -0.032629000000000005         
         S5        1.0000    0.06066   0.88890   0.67397   Biso      1.000     S          -0.04718  
         S6        1.0000    0.30830   0.98975   0.01481   Biso      1.000     S          -0.08501 