
##########################################################################
#               Crystallographic Information Format file
#               Produced by PyCifRW module
#
#  This is a CIF file.  CIF has been adopted by the International
#  Union of Crystallography as the standard for data archiving and
#  transmission.
#
#  For information on this file format, follow the CIF links at
#  http://www.iucr.org
##########################################################################

data_image0

_cell_length_a                          17.16
_cell_length_b                          16.787
_cell_length_c                          10.072
_cell_angle_alpha                       90
_cell_angle_beta                        120.77
_cell_angle_gamma                       90
_symmetry_space_group_name_H-M          'P 1'
_symmetry_int_tables_number             1
loop_
  _symmetry_equiv_pos_as_xyz
         'x, y, z' 
loop_
  _atom_site_label
  _atom_site_occupancy
  _atom_site_fract_x
  _atom_site_fract_y
  _atom_site_fract_z
  _atom_site_thermal_displace_type
  _atom_site_B_iso_or_equiv
  _atom_site_type_symbol
  _atom_site_charge
         C1        1.0000    0.21146   0.50323   0.36750   Biso      1.000     C          0.549143  
         C2        1.0000    0.16129   0.74168   0.24270   Biso      1.000     C          0.086667  
         C3        1.0000    0.05875   0.84516   0.14710   Biso      1.000     C          0.095302  
         C4        1.0000    0.98692   0.79294   0.07020   Biso      1.000     C          -0.145479           
         C5        1.0000    0.98692   0.20706   0.57020   Biso      1.000     C          -0.14548  
         C6        1.0000    0.78854   0.50323   0.13250   Biso      1.000     C          0.549142  
         C7        1.0000    0.01308   0.79294   0.42980   Biso      1.000     C          -0.14548  
         C8        1.0000    0.94125   0.84516   0.35290   Biso      1.000     C          0.095304  
         C9        1.0000    0.83871   0.74168   0.25730   Biso      1.000     C          0.08666599999999999           
         C10       1.0000    0.90684   0.68622   0.33120   Biso      1.000     C          -0.149222           
         C11       1.0000    0.99588   0.71202   0.41870   Biso      1.000     C          0.026086  
         C12       1.0000    0.07157   0.65208   0.49700   Biso      1.000     C          0.565249  
         C13       1.0000    0.42843   0.84792   0.50300   Biso      1.000     C          0.565249  
         C14       1.0000    0.50412   0.78798   0.58130   Biso      1.000     C          0.026085  
         C15       1.0000    0.59316   0.81378   0.66880   Biso      1.000     C          -0.14922  
         C16       1.0000    0.57157   0.84792   0.99700   Biso      1.000     C          0.565249  
         C17       1.0000    0.66129   0.75832   0.74270   Biso      1.000     C          0.08666599999999999           
         C18       1.0000    0.55875   0.65484   0.64710   Biso      1.000     C          0.095302  
         C19       1.0000    0.48692   0.70706   0.57020   Biso      1.000     C          -0.145479           
         C20       1.0000    0.51308   0.29294   0.42980   Biso      1.000     C          -0.14548  
         C21       1.0000    0.28854   0.99677   0.63250   Biso      1.000     C          0.549142  
         C22       1.0000    0.44125   0.34516   0.35290   Biso      1.000     C          0.095304  
         C23       1.0000    0.33871   0.24168   0.25730   Biso      1.000     C          0.08666599999999999           
         C24       1.0000    0.40684   0.18622   0.33120   Biso      1.000     C          -0.149222           
         C25       1.0000    0.49588   0.21202   0.41870   Biso      1.000     C          0.026085  
         C26       1.0000    0.57157   0.15208   0.49700   Biso      1.000     C          0.565249  
         C27       1.0000    0.78854   0.49677   0.63250   Biso      1.000     C          0.549143  
         C28       1.0000    0.92843   0.34792   0.50300   Biso      1.000     C          0.565248  
         C29       1.0000    0.00412   0.28798   0.58130   Biso      1.000     C          0.026085  
         C30       1.0000    0.09316   0.31378   0.66880   Biso      1.000     C          -0.14922  
         C31       1.0000    0.16129   0.25832   0.74270   Biso      1.000     C          0.08666599999999999           
         C32       1.0000    0.71146   0.00323   0.36750   Biso      1.000     C          0.549142  
         C33       1.0000    0.09316   0.68622   0.16880   Biso      1.000     C          -0.149222           
         C34       1.0000    0.05875   0.15484   0.64710   Biso      1.000     C          0.095304  
         C35       1.0000    0.92843   0.65208   0.00300   Biso      1.000     C          0.565248  
         C36       1.0000    0.21146   0.49677   0.86750   Biso      1.000     C          0.549142  
         C37       1.0000    0.01308   0.20706   0.92980   Biso      1.000     C          -0.14548  
         C38       1.0000    0.94125   0.15484   0.85290   Biso      1.000     C          0.095304  
         C39       1.0000    0.83871   0.25832   0.75730   Biso      1.000     C          0.08666599999999999           
         C40       1.0000    0.42843   0.15208   0.00300   Biso      1.000     C          0.565249  
         C41       1.0000    0.50412   0.21202   0.08130   Biso      1.000     C          0.026085  
         C42       1.0000    0.59316   0.18622   0.16880   Biso      1.000     C          -0.14922  
         C43       1.0000    0.90684   0.31378   0.83120   Biso      1.000     C          -0.149222           
         C44       1.0000    0.66129   0.24168   0.24270   Biso      1.000     C          0.08666599999999999           
         C45       1.0000    0.99588   0.28798   0.91870   Biso      1.000     C          0.026086  
         C46       1.0000    0.55875   0.34516   0.14710   Biso      1.000     C          0.095303  
         C47       1.0000    0.00412   0.71202   0.08130   Biso      1.000     C          0.026085  
         C48       1.0000    0.48692   0.29294   0.07020   Biso      1.000     C          -0.145479           
         C49       1.0000    0.28854   0.00323   0.13250   Biso      1.000     C          0.549142  
         C50       1.0000    0.71146   0.99677   0.86750   Biso      1.000     C          0.549143  
         C51       1.0000    0.07157   0.34792   0.99700   Biso      1.000     C          0.565249  
         C52       1.0000    0.49588   0.78798   0.91870   Biso      1.000     C          0.026085  
         C53       1.0000    0.51308   0.70706   0.92980   Biso      1.000     C          -0.145481           
         C54       1.0000    0.40684   0.81378   0.83120   Biso      1.000     C          -0.14922  
         C55       1.0000    0.44125   0.65484   0.85290   Biso      1.000     C          0.095304  
         C56       1.0000    0.33871   0.75832   0.75730   Biso      1.000     C          0.08666599999999999           
         H1        1.0000    0.59600   0.02600   0.72700   Biso      1.000     H          0.390236  
         H2        1.0000    0.92790   0.18800   0.51170   Biso      1.000     H          0.129025  
         H3        1.0000    0.07210   0.18800   0.98830   Biso      1.000     H          0.129025  
         H4        1.0000    0.09600   0.51000   0.35600   Biso      1.000     H          0.35433600000000004           
         H5        1.0000    0.95310   0.10040   0.86150   Biso      1.000     H          0.094358  
         H6        1.0000    0.90400   0.52600   0.77300   Biso      1.000     H          0.390236  
         H7        1.0000    0.09600   0.52600   0.72700   Biso      1.000     H          0.390237  
         H8        1.0000    0.77910   0.27600   0.69890   Biso      1.000     H          0.10248499999999999           
         H9        1.0000    0.09600   0.47400   0.22700   Biso      1.000     H          0.390237  
         H10       1.0000    0.89330   0.36790   0.82250   Biso      1.000     H          0.126486  
         H11       1.0000    0.39330   0.13210   0.32250   Biso      1.000     H          0.126486  
         H12       1.0000    0.27910   0.22400   0.19890   Biso      1.000     H          0.10248499999999999           
         H13       1.0000    0.57210   0.68800   0.98830   Biso      1.000     H          0.129025  
         H14       1.0000    0.45310   0.39960   0.36150   Biso      1.000     H          0.094358  
         H15       1.0000    0.27910   0.77600   0.69890   Biso      1.000     H          0.10248499999999999           
         H16       1.0000    0.07210   0.81200   0.48830   Biso      1.000     H          0.129025  
         H17       1.0000    0.57210   0.31200   0.48830   Biso      1.000     H          0.129025  
         H18       1.0000    0.95310   0.89960   0.36150   Biso      1.000     H          0.094358  
         H19       1.0000    0.45310   0.60040   0.86150   Biso      1.000     H          0.094358  
         H20       1.0000    0.77910   0.72400   0.19890   Biso      1.000     H          0.10248499999999999           
         H21       1.0000    0.59600   0.97400   0.22700   Biso      1.000     H          0.390236  
         H22       1.0000    0.59600   0.99000   0.85600   Biso      1.000     H          0.354335  
         H23       1.0000    0.89330   0.63210   0.32250   Biso      1.000     H          0.126486  
         H24       1.0000    0.59600   0.01000   0.35600   Biso      1.000     H          0.35433600000000004           
         H25       1.0000    0.39330   0.86790   0.82250   Biso      1.000     H          0.126486  
         H26       1.0000    0.90400   0.49000   0.64400   Biso      1.000     H          0.35433600000000004           
         H27       1.0000    0.09600   0.49000   0.85600   Biso      1.000     H          0.35433600000000004           
         H28       1.0000    0.22090   0.27600   0.80110   Biso      1.000     H          0.10248499999999999           
         H29       1.0000    0.42790   0.68800   0.51170   Biso      1.000     H          0.129025  
         H30       1.0000    0.54690   0.60040   0.63850   Biso      1.000     H          0.094358  
         H31       1.0000    0.72090   0.77600   0.80110   Biso      1.000     H          0.10248499999999999           
         H32       1.0000    0.60670   0.86790   0.67750   Biso      1.000     H          0.126486  
         H33       1.0000    0.90400   0.51000   0.14400   Biso      1.000     H          0.35433600000000004           
         H34       1.0000    0.90400   0.47400   0.27300   Biso      1.000     H          0.390237  
         H35       1.0000    0.04690   0.10040   0.63850   Biso      1.000     H          0.094359  
         H36       1.0000    0.40400   0.02600   0.77300   Biso      1.000     H          0.390237  
         H37       1.0000    0.04690   0.89960   0.13850   Biso      1.000     H          0.094358  
         H38       1.0000    0.10670   0.63210   0.17750   Biso      1.000     H          0.126486  
         H39       1.0000    0.40400   0.01000   0.14400   Biso      1.000     H          0.35433600000000004           
         H40       1.0000    0.40400   0.97400   0.27300   Biso      1.000     H          0.390237  
         H41       1.0000    0.42790   0.31200   0.01170   Biso      1.000     H          0.129025  
         H42       1.0000    0.54690   0.39960   0.13850   Biso      1.000     H          0.094359  
         H43       1.0000    0.72090   0.22400   0.30110   Biso      1.000     H          0.10248499999999999           
         H44       1.0000    0.60670   0.13210   0.17750   Biso      1.000     H          0.126486  
         H45       1.0000    0.22090   0.72400   0.30110   Biso      1.000     H          0.10248499999999999           
         H46       1.0000    0.40400   0.99000   0.64400   Biso      1.000     H          0.35433600000000004           
         H47       1.0000    0.92790   0.81200   0.01170   Biso      1.000     H          0.129025  
         H48       1.0000    0.10670   0.36790   0.67750   Biso      1.000     H          0.126486  
         N1        1.0000    0.76070   0.02250   0.80770   Biso      1.000     N          -0.352501           
         N2        1.0000    0.62319   0.98473   0.31180   Biso      1.000     N          -0.787363           
         N3        1.0000    0.64487   0.32047   0.23350   Biso      1.000     N          -0.203881           
         N4        1.0000    0.14487   0.17953   0.73350   Biso      1.000     N          -0.20388199999999998          
         N5        1.0000    0.62319   0.01527   0.81180   Biso      1.000     N          -0.787363           
         N6        1.0000    0.76247   0.95048   0.99040   Biso      1.000     N          -0.356626           
         N7        1.0000    0.84665   0.94883   0.00590   Biso      1.000     N          -0.064871           
         N8        1.0000    0.84565   0.99069   0.89880   Biso      1.000     N          -0.076679           
         N9        1.0000    0.73930   0.52250   0.69230   Biso      1.000     N          -0.352501           
         N10       1.0000    0.35513   0.67953   0.76650   Biso      1.000     N          -0.203881           
         N11       1.0000    0.76247   0.04952   0.49040   Biso      1.000     N          -0.356626           
         N12       1.0000    0.85513   0.17953   0.76650   Biso      1.000     N          -0.20388199999999998          
         N13       1.0000    0.73930   0.47750   0.19230   Biso      1.000     N          -0.352497           
         N14       1.0000    0.65435   0.50931   0.10120   Biso      1.000     N          -0.07671499999999999          
         N15       1.0000    0.65335   0.55117   0.99410   Biso      1.000     N          -0.06484  
         N16       1.0000    0.73753   0.54952   0.00960   Biso      1.000     N          -0.356622           
         N17       1.0000    0.87681   0.48473   0.18820   Biso      1.000     N          -0.787363           
         N18       1.0000    0.26070   0.52250   0.80770   Biso      1.000     N          -0.352497           
         N19       1.0000    0.34565   0.49069   0.89880   Biso      1.000     N          -0.07671599999999999          
         N20       1.0000    0.34665   0.44883   0.00590   Biso      1.000     N          -0.06484  
         N21       1.0000    0.26247   0.45048   0.99040   Biso      1.000     N          -0.356622           
         N22       1.0000    0.12319   0.51527   0.81180   Biso      1.000     N          -0.787363           
         N23       1.0000    0.14487   0.82047   0.23350   Biso      1.000     N          -0.20388199999999998          
         N24       1.0000    0.84665   0.05117   0.50590   Biso      1.000     N          -0.06487000000000001          
         N25       1.0000    0.84565   0.00931   0.39880   Biso      1.000     N          -0.076686           
         N26       1.0000    0.76070   0.97750   0.30770   Biso      1.000     N          -0.35249400000000003          
         N27       1.0000    0.87681   0.51527   0.68820   Biso      1.000     N          -0.787363           
         N28       1.0000    0.73753   0.45048   0.50960   Biso      1.000     N          -0.356625           
         N29       1.0000    0.65335   0.44883   0.49410   Biso      1.000     N          -0.064871           
         N30       1.0000    0.35513   0.32047   0.26650   Biso      1.000     N          -0.20388199999999998          
         N31       1.0000    0.64487   0.67953   0.73350   Biso      1.000     N          -0.20388199999999998          
         N32       1.0000    0.37681   0.98473   0.18820   Biso      1.000     N          -0.787363           
         N33       1.0000    0.23753   0.04952   0.00960   Biso      1.000     N          -0.356626           
         N34       1.0000    0.12319   0.48473   0.31180   Biso      1.000     N          -0.787363           
         N35       1.0000    0.26247   0.54952   0.49040   Biso      1.000     N          -0.356625           
         N36       1.0000    0.65435   0.49069   0.60120   Biso      1.000     N          -0.076679           
         N37       1.0000    0.34665   0.55117   0.50590   Biso      1.000     N          -0.064871           
         N38       1.0000    0.26070   0.47750   0.30770   Biso      1.000     N          -0.352501           
         N39       1.0000    0.85513   0.82047   0.26650   Biso      1.000     N          -0.20388199999999998          
         N40       1.0000    0.23930   0.02250   0.69230   Biso      1.000     N          -0.352497           
         N41       1.0000    0.15435   0.99069   0.60120   Biso      1.000     N          -0.07671599999999999          
         N42       1.0000    0.15335   0.94883   0.49410   Biso      1.000     N          -0.06484  
         N43       1.0000    0.23753   0.95048   0.50960   Biso      1.000     N          -0.356622           
         N44       1.0000    0.37681   0.01527   0.68820   Biso      1.000     N          -0.787363           
         N45       1.0000    0.15335   0.05117   0.99410   Biso      1.000     N          -0.06487000000000001          
         N46       1.0000    0.15435   0.00931   0.10120   Biso      1.000     N          -0.076686           
         N47       1.0000    0.23930   0.97750   0.19230   Biso      1.000     N          -0.35249400000000003          
         N48       1.0000    0.34565   0.50931   0.39880   Biso      1.000     N          -0.07668  
         O1        1.0000    0.44581   0.08007   0.01780   Biso      1.000     O          -0.544992           
         O2        1.0000    0.34860   0.18082   0.92630   Biso      1.000     O          -0.5414760000000001           
         O3        1.0000    0.05419   0.41993   0.98220   Biso      1.000     O          -0.544992           
         O4        1.0000    0.84860   0.31918   0.42630   Biso      1.000     O          -0.5414760000000001           
         O5        1.0000    0.65140   0.81918   0.07370   Biso      1.000     O          -0.5414760000000001           
         O6        1.0000    0.94581   0.41993   0.51780   Biso      1.000     O          -0.544992           
         O7        1.0000    0.65140   0.18082   0.57370   Biso      1.000     O          -0.5414760000000001           
         O8        1.0000    0.84860   0.68082   0.92630   Biso      1.000     O          -0.541475           
         O9        1.0000    0.94581   0.58007   0.01780   Biso      1.000     O          -0.544991           
         O10       1.0000    0.55419   0.08007   0.48220   Biso      1.000     O          -0.544992           
         O11       1.0000    0.15140   0.68082   0.57370   Biso      1.000     O          -0.5414760000000001           
         O12       1.0000    0.55419   0.91993   0.98220   Biso      1.000     O          -0.544992           
         O13       1.0000    0.15140   0.31918   0.07370   Biso      1.000     O          -0.541475           
         O14       1.0000    0.05419   0.58007   0.48220   Biso      1.000     O          -0.544992           
         O15       1.0000    0.44581   0.91993   0.51780   Biso      1.000     O          -0.544992           
         O16       1.0000    0.34860   0.81918   0.42630   Biso      1.000     O          -0.5414760000000001           
         Zn1       1.0000    0.24872   0.60237   0.65431   Biso      1.000     Zn          0.703717  
         Zn2       1.0000    0.24872   0.39763   0.15431   Biso      1.000     Zn          0.703716  
         Zn3       1.0000    0.74872   0.89763   0.15431   Biso      1.000     Zn          0.703716  
         Zn4       1.0000    0.75128   0.39763   0.34569   Biso      1.000     Zn          0.703717  
         Zn5       1.0000    0.75128   0.60237   0.84569   Biso      1.000     Zn          0.703715  
         Zn6       1.0000    0.74872   0.10237   0.65431   Biso      1.000     Zn          0.703717  
         Zn7       1.0000    0.25128   0.89763   0.34569   Biso      1.000     Zn          0.703716  
         Zn8       1.0000    0.25128   0.10237   0.84569   Biso      1.000     Zn          0.7037180000000001 