
##########################################################################
#               Crystallographic Information Format file
#               Produced by PyCifRW module
#
#  This is a CIF file.  CIF has been adopted by the International
#  Union of Crystallography as the standard for data archiving and
#  transmission.
#
#  For information on this file format, follow the CIF links at
#  http://www.iucr.org
##########################################################################

data_image0

_cell_length_a                          12.53
_cell_length_b                          16.1304
_cell_length_c                          20.8928
_cell_angle_alpha                       67.3971
_cell_angle_beta                        72.5506
_cell_angle_gamma                       67.1452
_symmetry_space_group_name_H-M          'P 1'
_symmetry_int_tables_number             1
loop_
  _symmetry_equiv_pos_as_xyz
         'x, y, z' 
loop_
  _atom_site_label
  _atom_site_occupancy
  _atom_site_fract_x
  _atom_site_fract_y
  _atom_site_fract_z
  _atom_site_thermal_displace_type
  _atom_site_B_iso_or_equiv
  _atom_site_type_symbol
  _atom_site_charge
         C1        1.0000    0.78410   0.57920   0.96880   Biso      1.000     C          0.084098  
         C2        1.0000    0.78930   0.22010   0.55610   Biso      1.000     C          -0.12826300000000002          
         C3        1.0000    0.61660   0.18930   0.62370   Biso      1.000     C          -0.149256           
         C4        1.0000    0.73720   0.15970   0.60830   Biso      1.000     C          0.130555  
         C5        1.0000    0.80810   0.06260   0.64260   Biso      1.000     C          0.191573  
         C6        1.0000    0.62280   0.01440   0.52680   Biso      1.000     C          -0.172735           
         C7        1.0000    0.66790   0.07920   0.46880   Biso      1.000     C          0.083589  
         C8        1.0000    0.85340   0.99250   0.49210   Biso      1.000     C          0.082088  
         C9        1.0000    0.81360   0.92520   0.54840   Biso      1.000     C          -0.168545           
         C10       1.0000    0.69480   0.93500   0.56780   Biso      1.000     C          0.100899  
         C11       1.0000    0.71960   0.31250   0.52330   Biso      1.000     C          0.084698  
         C12       1.0000    0.65160   0.86790   0.62550   Biso      1.000     C          0.21500100000000003           
         C13       1.0000    0.55540   0.18750   0.97670   Biso      1.000     C          0.081207  
         C14       1.0000    0.56550   0.27990   0.94390   Biso      1.000     C          -0.12385499999999999          
         C15       1.0000    0.42960   0.31070   0.87630   Biso      1.000     C          -0.150455           
         C16       1.0000    0.50520   0.34030   0.89170   Biso      1.000     C          0.127674  
         C17       1.0000    0.51330   0.43740   0.85740   Biso      1.000     C          0.194443  
         C18       1.0000    0.14500   0.63210   0.87450   Biso      1.000     C          0.21778000000000003           
         C19       1.0000    0.19760   0.56500   0.93220   Biso      1.000     C          0.098802  
         C20       1.0000    0.28720   0.57480   0.95160   Biso      1.000     C          -0.167992           
         C21       1.0000    0.33800   0.50750   0.00790   Biso      1.000     C          0.08047   
         C22       1.0000    0.42760   0.21880   0.90960   Biso      1.000     C          0.084412  
         C23       1.0000    0.55600   0.28120   0.59040   Biso      1.000     C          0.08525   
         C24       1.0000    0.85500   0.36790   0.12550   Biso      1.000     C          0.21778000000000003           
         C25       1.0000    0.80240   0.43500   0.06780   Biso      1.000     C          0.098802  
         C26       1.0000    0.44400   0.71880   0.40960   Biso      1.000     C          0.085248  
         C27       1.0000    0.28040   0.68750   0.47670   Biso      1.000     C          0.084698  
         C28       1.0000    0.21070   0.77990   0.44390   Biso      1.000     C          -0.12826300000000002          
         C29       1.0000    0.38340   0.81070   0.37630   Biso      1.000     C          -0.149254           
         C30       1.0000    0.26280   0.84030   0.39170   Biso      1.000     C          0.130555  
         C31       1.0000    0.19190   0.93740   0.35740   Biso      1.000     C          0.191575  
         C32       1.0000    0.37720   0.98560   0.47320   Biso      1.000     C          -0.172735           
         C33       1.0000    0.33210   0.92080   0.53120   Biso      1.000     C          0.083589  
         C34       1.0000    0.14660   0.00750   0.50790   Biso      1.000     C          0.082088  
         C35       1.0000    0.18640   0.07480   0.45160   Biso      1.000     C          -0.168545           
         C36       1.0000    0.30520   0.06500   0.43220   Biso      1.000     C          0.100899  
         C37       1.0000    0.34840   0.13210   0.37450   Biso      1.000     C          0.21499899999999997           
         C38       1.0000    0.57240   0.78120   0.09040   Biso      1.000     C          0.08441   
         C39       1.0000    0.44460   0.81250   0.02330   Biso      1.000     C          0.081207  
         C40       1.0000    0.43450   0.72010   0.05610   Biso      1.000     C          -0.12385499999999999          
         C41       1.0000    0.57040   0.68930   0.12370   Biso      1.000     C          -0.150454           
         C42       1.0000    0.49480   0.65970   0.10830   Biso      1.000     C          0.127674  
         C43       1.0000    0.48670   0.56260   0.14260   Biso      1.000     C          0.194446  
         C44       1.0000    0.83600   0.51440   0.02680   Biso      1.000     C          -0.17285  
         C45       1.0000    0.66200   0.49250   0.99210   Biso      1.000     C          0.080466  
         C46       1.0000    0.71280   0.42520   0.04840   Biso      1.000     C          -0.167989           
         C47       1.0000    0.21590   0.42080   0.03120   Biso      1.000     C          0.084098  
         C48       1.0000    0.16400   0.48560   0.97320   Biso      1.000     C          -0.17285  
         Cd1       1.0000    0.36683   0.74016   0.76034   Biso      1.000     Cd          0.7325189999999999  
         Cd2       1.0000    0.86733   0.75984   0.73966   Biso      1.000     Cd          0.732186  
         Cd3       1.0000    0.50000   0.50000   0.50000   Biso      1.000     Cd          0.853543  
         Cd4       1.0000    0.50000   0.00000   0.00000   Biso      1.000     Cd          0.853411  
         Cd5       1.0000    0.85208   0.16440   0.34534   Biso      1.000     Cd          0.702968  
         Cd6       1.0000    0.13267   0.24016   0.26034   Biso      1.000     Cd          0.7321840000000001  
         Cd7       1.0000    0.36182   0.33560   0.15466   Biso      1.000     Cd          0.7023560000000001  
         Cd8       1.0000    0.63317   0.25984   0.23966   Biso      1.000     Cd          0.7325229999999999  
         Cd9       1.0000    0.14792   0.83560   0.65466   Biso      1.000     Cd          0.702968  
         Cd10      1.0000    0.63818   0.66440   0.84534   Biso      1.000     Cd          0.7023590000000001  
         Cl1       1.0000    0.29551   0.20330   0.15068   Biso      1.000     Cl          -0.538623           
         Cl2       1.0000    0.14433   0.40940   0.21754   Biso      1.000     Cl          -0.492094           
         Cl3       1.0000    0.35051   0.70330   0.65068   Biso      1.000     Cl          -0.539043           
         Cl4       1.0000    0.22873   0.90940   0.71754   Biso      1.000     Cl          -0.49178900000000003          
         Cl5       1.0000    0.04254   0.73860   0.63232   Biso      1.000     Cl          -0.513666           
         Cl6       1.0000    0.70449   0.79670   0.84932   Biso      1.000     Cl          -0.538623           
         Cl7       1.0000    0.85567   0.59060   0.78246   Biso      1.000     Cl          -0.492094           
         Cl8       1.0000    0.58654   0.23860   0.13232   Biso      1.000     Cl          -0.513943           
         Cl9       1.0000    0.64949   0.29670   0.34932   Biso      1.000     Cl          -0.539043           
         Cl10      1.0000    0.77127   0.09060   0.28246   Biso      1.000     Cl          -0.49178900000000003          
         Cl11      1.0000    0.95746   0.26140   0.36768   Biso      1.000     Cl          -0.513666           
         Cl12      1.0000    0.41346   0.76140   0.86768   Biso      1.000     Cl          -0.513943           
         H1        1.0000    0.52700   0.69930   0.39510   Biso      1.000     H          0.09085800000000001           
         H2        1.0000    0.10380   0.47480   0.96160   Biso      1.000     H          0.129171  
         H3        1.0000    0.31400   0.62800   0.92600   Biso      1.000     H          0.11539   
         H4        1.0000    0.40080   0.51560   0.01900   Biso      1.000     H          0.081453  
         H5        1.0000    0.18830   0.36830   0.05930   Biso      1.000     H          0.09253   
         H6        1.0000    0.37950   0.35280   0.84320   Biso      1.000     H          0.149949  
         H7        1.0000    0.24230   0.64540   0.51300   Biso      1.000     H          0.100328  
         H8        1.0000    0.59930   0.14540   0.01300   Biso      1.000     H          0.10276600000000001           
         H9        1.0000    0.61460   0.29900   0.95860   Biso      1.000     H          0.14966   
         H10       1.0000    0.62050   0.64720   0.15680   Biso      1.000     H          0.149949  
         H11       1.0000    0.38540   0.70100   0.04140   Biso      1.000     H          0.14966   
         H12       1.0000    0.40070   0.85460   0.98700   Biso      1.000     H          0.10276600000000001           
         H13       1.0000    0.62140   0.80070   0.10490   Biso      1.000     H          0.091613  
         H14       1.0000    0.89620   0.52520   0.03840   Biso      1.000     H          0.129171  
         H15       1.0000    0.06460   0.01560   0.51900   Biso      1.000     H          0.080825  
         H16       1.0000    0.38410   0.86830   0.55930   Biso      1.000     H          0.09234099999999999           
         H17       1.0000    0.45980   0.97480   0.46160   Biso      1.000     H          0.127995  
         H18       1.0000    0.42450   0.85280   0.34320   Biso      1.000     H          0.14788800000000002           
         H19       1.0000    0.12780   0.79900   0.45860   Biso      1.000     H          0.150701  
         H20       1.0000    0.13200   0.12800   0.42600   Biso      1.000     H          0.11634100000000001           
         H21       1.0000    0.59920   0.48440   0.98100   Biso      1.000     H          0.081453  
         H22       1.0000    0.81170   0.63170   0.94070   Biso      1.000     H          0.09253   
         H23       1.0000    0.86800   0.87200   0.57400   Biso      1.000     H          0.11634100000000001           
         H24       1.0000    0.93540   0.98440   0.48100   Biso      1.000     H          0.080825  
         H25       1.0000    0.37860   0.19930   0.89510   Biso      1.000     H          0.091612  
         H26       1.0000    0.54020   0.02520   0.53840   Biso      1.000     H          0.127996  
         H27       1.0000    0.61590   0.13170   0.44070   Biso      1.000     H          0.09234099999999999           
         H28       1.0000    0.57550   0.14720   0.65680   Biso      1.000     H          0.14788800000000002           
         H29       1.0000    0.87220   0.20100   0.54140   Biso      1.000     H          0.150701  
         H30       1.0000    0.75770   0.35460   0.48700   Biso      1.000     H          0.100328  
         H31       1.0000    0.47300   0.30070   0.60490   Biso      1.000     H          0.09085800000000001           
         H32       1.0000    0.68600   0.37200   0.07400   Biso      1.000     H          0.115389  
         N1        1.0000    0.51450   0.84340   0.04160   Biso      1.000     N          -0.23802199999999998          
         N2        1.0000    0.29710   0.19450   0.31810   Biso      1.000     N          -0.211916           
         N3        1.0000    0.37230   0.24110   0.27670   Biso      1.000     N          -0.057884000000000005         
         N4        1.0000    0.55680   0.49260   0.18480   Biso      1.000     N          -0.256798           
         N5        1.0000    0.46760   0.21170   0.30510   Biso      1.000     N          -0.030337           
         N6        1.0000    0.23420   0.00740   0.31520   Biso      1.000     N          -0.255769           
         N7        1.0000    0.21630   0.93180   0.54760   Biso      1.000     N          -0.212738           
         N8        1.0000    0.07400   0.96280   0.37160   Biso      1.000     N          -0.257469           
         N9        1.0000    0.04190   0.05700   0.33520   Biso      1.000     N          -0.044312           
         N10       1.0000    0.13890   0.08200   0.30240   Biso      1.000     N          -0.025954           
         N11       1.0000    0.39950   0.65660   0.45840   Biso      1.000     N          -0.236952           
         N12       1.0000    0.52330   0.41800   0.19760   Biso      1.000     N          -0.025872000000000003         
         N13       1.0000    0.45670   0.14480   0.36660   Biso      1.000     N          -0.24662800000000001          
         N14       1.0000    0.43410   0.44300   0.16480   Biso      1.000     N          -0.044614999999999995         
         N15       1.0000    0.60050   0.34340   0.54160   Biso      1.000     N          -0.23695300000000002          
         N16       1.0000    0.69570   0.56820   0.95240   Biso      1.000     N          -0.211777           
         N17       1.0000    0.19030   0.69450   0.81810   Biso      1.000     N          -0.21239699999999997          
         N18       1.0000    0.10990   0.74110   0.77670   Biso      1.000     N          -0.057936           
         N19       1.0000    0.01560   0.71170   0.80510   Biso      1.000     N          -0.028804000000000003         
         N20       1.0000    0.03190   0.64480   0.86660   Biso      1.000     N          -0.24873699999999999          
         N21       1.0000    0.30430   0.43180   0.04760   Biso      1.000     N          -0.211777           
         N22       1.0000    0.56590   0.55700   0.83520   Biso      1.000     N          -0.044648           
         N23       1.0000    0.47670   0.58200   0.80240   Biso      1.000     N          -0.025866000000000004         
         N24       1.0000    0.44320   0.50740   0.81520   Biso      1.000     N          -0.25677300000000003          
         N25       1.0000    0.48550   0.15660   0.95840   Biso      1.000     N          -0.238023           
         N26       1.0000    0.70290   0.80550   0.68190   Biso      1.000     N          -0.211916           
         N27       1.0000    0.40840   0.53720   0.12840   Biso      1.000     N          -0.257831           
         N28       1.0000    0.62770   0.75890   0.72330   Biso      1.000     N          -0.057888           
         N29       1.0000    0.54330   0.85520   0.63340   Biso      1.000     N          -0.24665399999999998          
         N30       1.0000    0.78370   0.06820   0.45240   Biso      1.000     N          -0.212738           
         N31       1.0000    0.92600   0.03720   0.62840   Biso      1.000     N          -0.257469           
         N32       1.0000    0.95810   0.94300   0.66480   Biso      1.000     N          -0.044308999999999994         
         N33       1.0000    0.86110   0.91800   0.69760   Biso      1.000     N          -0.025981999999999998         
         N34       1.0000    0.76580   0.99260   0.68480   Biso      1.000     N          -0.255743           
         N35       1.0000    0.80970   0.30550   0.18190   Biso      1.000     N          -0.21239699999999997          
         N36       1.0000    0.89010   0.25890   0.22330   Biso      1.000     N          -0.057936           
         N37       1.0000    0.98440   0.28830   0.19490   Biso      1.000     N          -0.028804000000000003         
         N38       1.0000    0.96810   0.35520   0.13340   Biso      1.000     N          -0.24873699999999999          
         N39       1.0000    0.53240   0.78830   0.69490   Biso      1.000     N          -0.030309           
         N40       1.0000    0.59160   0.46280   0.87160   Biso      1.000     N          -0.257826 