
##########################################################################
#               Crystallographic Information Format file
#               Produced by PyCifRW module
#
#  This is a CIF file.  CIF has been adopted by the International
#  Union of Crystallography as the standard for data archiving and
#  transmission.
#
#  For information on this file format, follow the CIF links at
#  http://www.iucr.org
##########################################################################

data_image0

_cell_length_a                          9.2494
_cell_length_b                          9.4212
_cell_length_c                          9.4212
_cell_angle_alpha                       101.274
_cell_angle_beta                        112.87
_cell_angle_gamma                       112.87
_symmetry_space_group_name_H-M          'P 1'
_symmetry_int_tables_number             1
loop_
  _symmetry_equiv_pos_as_xyz
         'x, y, z' 
loop_
  _atom_site_label
  _atom_site_occupancy
  _atom_site_fract_x
  _atom_site_fract_y
  _atom_site_fract_z
  _atom_site_thermal_displace_type
  _atom_site_B_iso_or_equiv
  _atom_site_type_symbol
  _atom_site_charge
         C1        1.0000    0.73240   0.38074   0.05746   Biso      1.000     C          0.116317  
         C2        1.0000    0.75680   0.30738   0.82282   Biso      1.000     C          0.168883  
         C3        1.0000    0.79570   0.46324   0.81796   Biso      1.000     C          -0.207873           
         C4        1.0000    0.79520   0.57906   0.93414   Biso      1.000     C          0.040994  
         C5        1.0000    0.75840   0.53534   0.05366   Biso      1.000     C          -0.163413           
         C6        1.0000    0.26760   0.61926   0.94254   Biso      1.000     C          0.107259  
         C7        1.0000    0.83050   0.74495   0.92185   Biso      1.000     C          0.58141   
         C8        1.0000    0.66950   0.07815   0.25505   Biso      1.000     C          0.580536  
         C9        1.0000    0.25680   0.82282   0.30738   Biso      1.000     C          0.163009  
         C10       1.0000    0.29520   0.93414   0.57906   Biso      1.000     C          0.032985  
         C11       1.0000    0.25840   0.05366   0.53534   Biso      1.000     C          -0.165891           
         C12       1.0000    0.23240   0.05746   0.38074   Biso      1.000     C          0.104944  
         C13       1.0000    0.33050   0.92185   0.74495   Biso      1.000     C          0.572725  
         C14       1.0000    0.24320   0.69262   0.17718   Biso      1.000     C          0.165175  
         C15       1.0000    0.20430   0.53676   0.18204   Biso      1.000     C          -0.206117           
         C16       1.0000    0.29570   0.81796   0.46324   Biso      1.000     C          -0.206578           
         C17       1.0000    0.76760   0.94254   0.61926   Biso      1.000     C          0.116047  
         C18       1.0000    0.74160   0.94634   0.46466   Biso      1.000     C          -0.16369  
         C19       1.0000    0.70480   0.06586   0.42094   Biso      1.000     C          0.041078  
         C20       1.0000    0.16950   0.25505   0.07815   Biso      1.000     C          0.575672  
         C21       1.0000    0.20480   0.42094   0.06586   Biso      1.000     C          0.035192  
         C22       1.0000    0.24160   0.46466   0.94634   Biso      1.000     C          -0.165103           
         C23       1.0000    0.74320   0.17718   0.69262   Biso      1.000     C          0.168669  
         C24       1.0000    0.70430   0.18204   0.53676   Biso      1.000     C          -0.207478           
         H1        1.0000    0.24890   0.39060   0.86880   Biso      1.000     H          0.137687  
         H2        1.0000    0.17760   0.50920   0.26400   Biso      1.000     H          0.13989   
         H3        1.0000    0.21410   0.14330   0.35350   Biso      1.000     H          0.104231  
         H4        1.0000    0.25110   0.13120   0.60940   Biso      1.000     H          0.137413  
         H5        1.0000    0.71410   0.35350   0.14330   Biso      1.000     H          0.102171  
         H6        1.0000    0.75110   0.60940   0.13120   Biso      1.000     H          0.136599  
         H7        1.0000    0.82240   0.49080   0.73600   Biso      1.000     H          0.13882   
         H8        1.0000    0.78590   0.85670   0.64650   Biso      1.000     H          0.101975  
         H9        1.0000    0.74890   0.86880   0.39060   Biso      1.000     H          0.136518  
         H10       1.0000    0.67760   0.26400   0.50920   Biso      1.000     H          0.138814  
         H11       1.0000    0.28590   0.64650   0.85670   Biso      1.000     H          0.104478  
         H12       1.0000    0.32240   0.73600   0.49080   Biso      1.000     H          0.13965   
         Mn1       1.0000    0.75000   0.03480   0.96520   Biso      1.000     Mn          0.932674  
         Mn2       1.0000    0.25000   0.96520   0.03480   Biso      1.000     Mn          0.769822  
         N1        1.0000    0.76780   0.05563   0.73223   Biso      1.000     N          -0.285545           
         N2        1.0000    0.73220   0.26777   0.94437   Biso      1.000     N          -0.284782           
         N3        1.0000    0.23220   0.94437   0.26777   Biso      1.000     N          -0.256732           
         N4        1.0000    0.26780   0.73223   0.05563   Biso      1.000     N          -0.256443           
         O1        1.0000    0.77440   0.06558   0.20592   Biso      1.000     O          -0.523032           
         O2        1.0000    0.54590   0.10812   0.18310   Biso      1.000     O          -0.534168           
         O3        1.0000    0.72560   0.79408   0.93442   Biso      1.000     O          -0.522809           
         O4        1.0000    0.95410   0.81690   0.89188   Biso      1.000     O          -0.533916           
         O5        1.0000    0.22560   0.93442   0.79408   Biso      1.000     O          -0.492275           
         O6        1.0000    0.45410   0.89188   0.81690   Biso      1.000     O          -0.56264  
         O7        1.0000    0.27440   0.20592   0.06558   Biso      1.000     O          -0.492538           
         O8        1.0000    0.04590   0.18310   0.10812   Biso      1.000     O          -0.560614 