
##########################################################################
#               Crystallographic Information Format file
#               Produced by PyCifRW module
#
#  This is a CIF file.  CIF has been adopted by the International
#  Union of Crystallography as the standard for data archiving and
#  transmission.
#
#  For information on this file format, follow the CIF links at
#  http://www.iucr.org
##########################################################################

data_image0

_cell_length_a                          6.6224
_cell_length_b                          13.0407
_cell_length_c                          13.9772
_cell_angle_alpha                       90
_cell_angle_beta                        90
_cell_angle_gamma                       90
_symmetry_space_group_name_H-M          'P 1'
_symmetry_int_tables_number             1
loop_
  _symmetry_equiv_pos_as_xyz
         'x, y, z' 
loop_
  _atom_site_label
  _atom_site_occupancy
  _atom_site_fract_x
  _atom_site_fract_y
  _atom_site_fract_z
  _atom_site_thermal_displace_type
  _atom_site_B_iso_or_equiv
  _atom_site_type_symbol
  _atom_site_charge
         C1        1.0000    0.45620   0.02452   0.70252   Biso      1.000     C          0.6887800000000001  
         C2        1.0000    0.16610   0.85068   0.13281   Biso      1.000     C          0.701849  
         C3        1.0000    0.06740   0.91029   0.21312   Biso      1.000     C          -0.535938           
         C4        1.0000    0.16610   0.35068   0.86719   Biso      1.000     C          0.70185   
         C5        1.0000    0.54380   0.47548   0.70252   Biso      1.000     C          0.688778  
         C6        1.0000    0.93260   0.58971   0.21312   Biso      1.000     C          -0.535938           
         C7        1.0000    0.33390   0.85068   0.63281   Biso      1.000     C          0.701849  
         C8        1.0000    0.43260   0.91029   0.71312   Biso      1.000     C          -0.535938           
         C9        1.0000    0.56740   0.08971   0.28688   Biso      1.000     C          -0.535938           
         C10       1.0000    0.95620   0.97548   0.79748   Biso      1.000     C          0.6887800000000001  
         C11       1.0000    0.95620   0.47548   0.20252   Biso      1.000     C          0.6887800000000001  
         C12       1.0000    0.83390   0.14932   0.86719   Biso      1.000     C          0.701849  
         C13       1.0000    0.04380   0.02452   0.20252   Biso      1.000     C          0.6887800000000001  
         C14       1.0000    0.54380   0.97548   0.29748   Biso      1.000     C          0.6887810000000001  
         C15       1.0000    0.66610   0.14932   0.36719   Biso      1.000     C          0.701849  
         C16       1.0000    0.33390   0.35068   0.36719   Biso      1.000     C          0.7018479999999999  
         C17       1.0000    0.93260   0.08971   0.78688   Biso      1.000     C          -0.535938           
         C18       1.0000    0.43260   0.41029   0.28688   Biso      1.000     C          -0.535937           
         C19       1.0000    0.83390   0.64932   0.13281   Biso      1.000     C          0.70185   
         C20       1.0000    0.04380   0.52452   0.79748   Biso      1.000     C          0.6887800000000001  
         C21       1.0000    0.45620   0.52452   0.29748   Biso      1.000     C          0.688779  
         C22       1.0000    0.56740   0.58971   0.71312   Biso      1.000     C          -0.535937           
         C23       1.0000    0.66610   0.64932   0.63281   Biso      1.000     C          0.7018479999999999  
         C24       1.0000    0.06740   0.41029   0.78688   Biso      1.000     C          -0.535938           
         Cd1       1.0000    0.00000   0.75000   0.77406   Biso      1.000     Cd          1.033397  
         Cd2       1.0000    0.50000   0.75000   0.27406   Biso      1.000     Cd          1.033397  
         Cd3       1.0000    0.00000   0.25000   0.22594   Biso      1.000     Cd          1.033397  
         Cd4       1.0000    0.50000   0.25000   0.72594   Biso      1.000     Cd          1.033397  
         Cu1       1.0000    0.50000   0.50000   0.50000   Biso      1.000     Cu          0.939795  
         Cu2       1.0000    0.50000   0.00000   0.50000   Biso      1.000     Cu          0.939787  
         Cu3       1.0000    0.00000   0.00000   0.00000   Biso      1.000     Cu          0.93979   
         Cu4       1.0000    0.00000   0.50000   0.00000   Biso      1.000     Cu          0.939801  
         H1        1.0000    0.85520   0.10220   0.72910   Biso      1.000     H          0.161423  
         H2        1.0000    0.35520   0.89780   0.77090   Biso      1.000     H          0.161424  
         H3        1.0000    0.43410   0.61850   0.72330   Biso      1.000     H          0.192011  
         H4        1.0000    0.93410   0.38150   0.77670   Biso      1.000     H          0.192012  
         H5        1.0000    0.56590   0.88150   0.72330   Biso      1.000     H          0.19201   
         H6        1.0000    0.93410   0.88150   0.22330   Biso      1.000     H          0.19201   
         H7        1.0000    0.14480   0.89780   0.27090   Biso      1.000     H          0.161424  
         H8        1.0000    0.85520   0.60220   0.27090   Biso      1.000     H          0.161426  
         H9        1.0000    0.35520   0.39780   0.22910   Biso      1.000     H          0.161426  
         H10       1.0000    0.43410   0.11850   0.27670   Biso      1.000     H          0.19201   
         H11       1.0000    0.06590   0.61850   0.22330   Biso      1.000     H          0.192012  
         H12       1.0000    0.64480   0.10220   0.22910   Biso      1.000     H          0.161424  
         H13       1.0000    0.56590   0.38150   0.27670   Biso      1.000     H          0.192011  
         H14       1.0000    0.64480   0.60220   0.77090   Biso      1.000     H          0.161426  
         H15       1.0000    0.14480   0.39780   0.72910   Biso      1.000     H          0.161426  
         H16       1.0000    0.06590   0.11850   0.77670   Biso      1.000     H          0.19201   
         O1        1.0000    0.23660   0.77217   0.65330   Biso      1.000     O          -0.538155           
         O2        1.0000    0.99330   0.06323   0.12303   Biso      1.000     O          -0.600893           
         O3        1.0000    0.36200   0.87824   0.54664   Biso      1.000     O          -0.557133           
         O4        1.0000    0.23660   0.27217   0.34670   Biso      1.000     O          -0.53815  
         O5        1.0000    0.50670   0.06323   0.62303   Biso      1.000     O          -0.600893           
         O6        1.0000    0.06610   0.08025   0.27370   Biso      1.000     O          -0.49854499999999996          
         O7        1.0000    0.43390   0.58025   0.22630   Biso      1.000     O          -0.498543           
         O8        1.0000    0.93390   0.91975   0.72630   Biso      1.000     O          -0.49854499999999996          
         O9        1.0000    0.26340   0.77217   0.15330   Biso      1.000     O          -0.538155           
         O10       1.0000    0.73660   0.22783   0.84670   Biso      1.000     O          -0.538155           
         O11       1.0000    0.13800   0.37824   0.95336   Biso      1.000     O          -0.557133           
         O12       1.0000    0.26340   0.27217   0.84670   Biso      1.000     O          -0.53815  
         O13       1.0000    0.93390   0.41975   0.27370   Biso      1.000     O          -0.498543           
         O14       1.0000    0.13800   0.87824   0.04664   Biso      1.000     O          -0.557133           
         O15       1.0000    0.63800   0.62176   0.54664   Biso      1.000     O          -0.55713  
         O16       1.0000    0.49330   0.43677   0.62303   Biso      1.000     O          -0.600892           
         O17       1.0000    0.76340   0.22783   0.34670   Biso      1.000     O          -0.538155           
         O18       1.0000    0.86200   0.12176   0.95336   Biso      1.000     O          -0.557134           
         O19       1.0000    0.76340   0.72783   0.65330   Biso      1.000     O          -0.53815  
         O20       1.0000    0.73660   0.72783   0.15330   Biso      1.000     O          -0.53815  
         O21       1.0000    0.36200   0.37824   0.45336   Biso      1.000     O          -0.557129           
         O22       1.0000    0.06610   0.58025   0.72630   Biso      1.000     O          -0.498543           
         O23       1.0000    0.56610   0.91975   0.22630   Biso      1.000     O          -0.49854499999999996          
         O24       1.0000    0.00670   0.43677   0.12303   Biso      1.000     O          -0.600893           
         O25       1.0000    0.50670   0.56323   0.37697   Biso      1.000     O          -0.600891           
         O26       1.0000    0.99330   0.56323   0.87697   Biso      1.000     O          -0.6008939999999999           
         O27       1.0000    0.00670   0.93677   0.87697   Biso      1.000     O          -0.6008939999999999           
         O28       1.0000    0.63800   0.12176   0.45336   Biso      1.000     O          -0.557133           
         O29       1.0000    0.49330   0.93677   0.37697   Biso      1.000     O          -0.600893           
         O30       1.0000    0.86200   0.62176   0.04664   Biso      1.000     O          -0.557132           
         O31       1.0000    0.43390   0.08025   0.77370   Biso      1.000     O          -0.49854499999999996          
         O32       1.0000    0.56610   0.41975   0.77370   Biso      1.000     O          -0.498543 