
##########################################################################
#               Crystallographic Information Format file
#               Produced by PyCifRW module
#
#  This is a CIF file.  CIF has been adopted by the International
#  Union of Crystallography as the standard for data archiving and
#  transmission.
#
#  For information on this file format, follow the CIF links at
#  http://www.iucr.org
##########################################################################

data_image0

_cell_length_a                          6.626
_cell_length_b                          13.052
_cell_length_c                          13.958
_cell_angle_alpha                       90
_cell_angle_beta                        90
_cell_angle_gamma                       90
_symmetry_space_group_name_H-M          'P 1'
_symmetry_int_tables_number             1
loop_
  _symmetry_equiv_pos_as_xyz
         'x, y, z' 
loop_
  _atom_site_label
  _atom_site_occupancy
  _atom_site_fract_x
  _atom_site_fract_y
  _atom_site_fract_z
  _atom_site_thermal_displace_type
  _atom_site_B_iso_or_equiv
  _atom_site_type_symbol
  _atom_site_charge
         C1        1.0000    0.16570   0.14930   0.13298   Biso      1.000     C          0.702564  
         C2        1.0000    0.54400   0.52450   0.70250   Biso      1.000     C          0.685974  
         C3        1.0000    0.83430   0.85070   0.86702   Biso      1.000     C          0.702564  
         C4        1.0000    0.93310   0.91010   0.78650   Biso      1.000     C          -0.534277           
         C5        1.0000    0.95600   0.02450   0.79750   Biso      1.000     C          0.685974  
         C6        1.0000    0.33430   0.14930   0.63298   Biso      1.000     C          0.702564  
         C7        1.0000    0.43310   0.08990   0.71350   Biso      1.000     C          -0.534277           
         C8        1.0000    0.45600   0.97550   0.70250   Biso      1.000     C          0.685974  
         C9        1.0000    0.16570   0.64930   0.86702   Biso      1.000     C          0.702564  
         C10       1.0000    0.06690   0.58990   0.78650   Biso      1.000     C          -0.534277           
         C11       1.0000    0.04400   0.47550   0.79750   Biso      1.000     C          0.685974  
         C12       1.0000    0.33430   0.64930   0.36702   Biso      1.000     C          0.702564  
         C13       1.0000    0.43310   0.58990   0.28650   Biso      1.000     C          -0.534277           
         C14       1.0000    0.45600   0.47550   0.29750   Biso      1.000     C          0.685974  
         C15       1.0000    0.06690   0.08990   0.21350   Biso      1.000     C          -0.534277           
         C16       1.0000    0.04400   0.97550   0.20250   Biso      1.000     C          0.685974  
         C17       1.0000    0.66570   0.85070   0.36702   Biso      1.000     C          0.702564  
         C18       1.0000    0.56690   0.91010   0.28650   Biso      1.000     C          -0.534277           
         C19       1.0000    0.54400   0.02450   0.29750   Biso      1.000     C          0.685974  
         C20       1.0000    0.83430   0.35070   0.13298   Biso      1.000     C          0.702564  
         C21       1.0000    0.93310   0.41010   0.21350   Biso      1.000     C          -0.534277           
         C22       1.0000    0.95600   0.52450   0.20250   Biso      1.000     C          0.685974  
         C23       1.0000    0.56690   0.41010   0.71350   Biso      1.000     C          -0.534277           
         C24       1.0000    0.66570   0.35070   0.63298   Biso      1.000     C          0.702564  
         Cd1       1.0000    0.00000   0.25000   0.77423   Biso      1.000     Cd          1.034428  
         Cd2       1.0000    0.50000   0.75000   0.72577   Biso      1.000     Cd          1.034428  
         Cd3       1.0000    0.00000   0.75000   0.22577   Biso      1.000     Cd          1.034428  
         Cd4       1.0000    0.50000   0.25000   0.27423   Biso      1.000     Cd          1.034428  
         Cu1       1.0000    0.00000   0.00000   0.00000   Biso      1.000     Cu          0.936754  
         Cu2       1.0000    0.50000   0.50000   0.50000   Biso      1.000     Cu          0.936759  
         Cu3       1.0000    0.50000   0.00000   0.50000   Biso      1.000     Cu          0.936755  
         Cu4       1.0000    0.00000   0.50000   0.00000   Biso      1.000     Cu          0.936758  
         H1        1.0000    0.85590   0.39760   0.27140   Biso      1.000     H          0.160797  
         H2        1.0000    0.43360   0.38150   0.72360   Biso      1.000     H          0.19219   
         H3        1.0000    0.64410   0.39760   0.77140   Biso      1.000     H          0.160797  
         H4        1.0000    0.06640   0.88150   0.77640   Biso      1.000     H          0.192189  
         H5        1.0000    0.06640   0.38150   0.22360   Biso      1.000     H          0.19219   
         H6        1.0000    0.56640   0.11850   0.72360   Biso      1.000     H          0.19219   
         H7        1.0000    0.85590   0.89760   0.72860   Biso      1.000     H          0.160796  
         H8        1.0000    0.43360   0.88150   0.27640   Biso      1.000     H          0.19219   
         H9        1.0000    0.14410   0.10240   0.27140   Biso      1.000     H          0.160796  
         H10       1.0000    0.64410   0.89760   0.22860   Biso      1.000     H          0.160797  
         H11       1.0000    0.35590   0.60240   0.22860   Biso      1.000     H          0.160797  
         H12       1.0000    0.93360   0.11850   0.22360   Biso      1.000     H          0.192189  
         H13       1.0000    0.56640   0.61850   0.27640   Biso      1.000     H          0.19219   
         H14       1.0000    0.14410   0.60240   0.72860   Biso      1.000     H          0.160797  
         H15       1.0000    0.93360   0.61850   0.77640   Biso      1.000     H          0.19219   
         H16       1.0000    0.35590   0.10240   0.77140   Biso      1.000     H          0.160797  
         O1        1.0000    0.36240   0.62192   0.45309   Biso      1.000     O          -0.556295           
         O2        1.0000    0.43400   0.41958   0.22603   Biso      1.000     O          -0.499255           
         O3        1.0000    0.26310   0.22765   0.15350   Biso      1.000     O          -0.539094           
         O4        1.0000    0.13760   0.12192   0.04691   Biso      1.000     O          -0.556295           
         O5        1.0000    0.50670   0.43659   0.37677   Biso      1.000     O          -0.598196           
         O6        1.0000    0.99330   0.93659   0.12323   Biso      1.000     O          -0.598196           
         O7        1.0000    0.56600   0.08042   0.22603   Biso      1.000     O          -0.499255           
         O8        1.0000    0.76310   0.77235   0.34650   Biso      1.000     O          -0.539094           
         O9        1.0000    0.63760   0.87808   0.45309   Biso      1.000     O          -0.556295           
         O10       1.0000    0.49330   0.06341   0.37677   Biso      1.000     O          -0.598196           
         O11       1.0000    0.73690   0.27235   0.15350   Biso      1.000     O          -0.539093           
         O12       1.0000    0.23690   0.72765   0.34650   Biso      1.000     O          -0.539093           
         O13       1.0000    0.86240   0.37808   0.04691   Biso      1.000     O          -0.556294           
         O14       1.0000    0.06600   0.91958   0.27397   Biso      1.000     O          -0.499256           
         O15       1.0000    0.06600   0.41958   0.72603   Biso      1.000     O          -0.499255           
         O16       1.0000    0.73690   0.77235   0.84650   Biso      1.000     O          -0.539094           
         O17       1.0000    0.13760   0.62192   0.95309   Biso      1.000     O          -0.556294           
         O18       1.0000    0.26310   0.72765   0.84650   Biso      1.000     O          -0.539093           
         O19       1.0000    0.43400   0.91958   0.77397   Biso      1.000     O          -0.499255           
         O20       1.0000    0.50670   0.93659   0.62323   Biso      1.000     O          -0.598196           
         O21       1.0000    0.36240   0.12192   0.54691   Biso      1.000     O          -0.556295           
         O22       1.0000    0.23690   0.22765   0.65350   Biso      1.000     O          -0.539094           
         O23       1.0000    0.93400   0.08042   0.72603   Biso      1.000     O          -0.499256           
         O24       1.0000    0.00670   0.06341   0.87677   Biso      1.000     O          -0.598196           
         O25       1.0000    0.86240   0.87808   0.95309   Biso      1.000     O          -0.556295           
         O26       1.0000    0.56600   0.58042   0.77397   Biso      1.000     O          -0.499255           
         O27       1.0000    0.49330   0.56341   0.62323   Biso      1.000     O          -0.598196           
         O28       1.0000    0.63760   0.37808   0.54691   Biso      1.000     O          -0.556295           
         O29       1.0000    0.76310   0.27235   0.65350   Biso      1.000     O          -0.539093           
         O30       1.0000    0.00670   0.56341   0.12323   Biso      1.000     O          -0.598196           
         O31       1.0000    0.99330   0.43659   0.87677   Biso      1.000     O          -0.598196           
         O32       1.0000    0.93400   0.58042   0.27397   Biso      1.000     O          -0.499255 