
##########################################################################
#               Crystallographic Information Format file
#               Produced by PyCifRW module
#
#  This is a CIF file.  CIF has been adopted by the International
#  Union of Crystallography as the standard for data archiving and
#  transmission.
#
#  For information on this file format, follow the CIF links at
#  http://www.iucr.org
##########################################################################

data_image0

_cell_length_a                          9.9962
_cell_length_b                          10.626
_cell_length_c                          10.8273
_cell_angle_alpha                       80.552
_cell_angle_beta                        73.117
_cell_angle_gamma                       74.129
_symmetry_space_group_name_H-M          'P 1'
_symmetry_int_tables_number             1
loop_
  _symmetry_equiv_pos_as_xyz
         'x, y, z' 
loop_
  _atom_site_label
  _atom_site_occupancy
  _atom_site_fract_x
  _atom_site_fract_y
  _atom_site_fract_z
  _atom_site_thermal_displace_type
  _atom_site_B_iso_or_equiv
  _atom_site_type_symbol
  _atom_site_charge
         C1        1.0000    0.50730   0.16500   0.57380   Biso      1.000     C          -0.059395           
         C2        1.0000    0.99330   0.36120   0.32680   Biso      1.000     C          0.078859  
         C3        1.0000    0.86750   0.45960   0.33830   Biso      1.000     C          -0.020736           
         C4        1.0000    0.78470   0.48710   0.46250   Biso      1.000     C          -0.071292           
         C5        1.0000    0.82910   0.41700   0.56910   Biso      1.000     C          -0.096231           
         C6        1.0000    0.95420   0.31830   0.54890   Biso      1.000     C          0.099717  
         C7        1.0000    0.46640   0.88350   0.29480   Biso      1.000     C          0.686824  
         C8        1.0000    0.71420   0.92990   0.38060   Biso      1.000     C          0.540586  
         C9        1.0000    0.60890   0.85060   0.46270   Biso      1.000     C          0.06115   
         C10       1.0000    0.49270   0.83500   0.42620   Biso      1.000     C          -0.059410000000000004         
         C11       1.0000    0.39930   0.76580   0.51450   Biso      1.000     C          -0.059696000000000006         
         C12       1.0000    0.42630   0.71280   0.63180   Biso      1.000     C          -0.09421399999999999          
         C13       1.0000    0.54500   0.73110   0.66070   Biso      1.000     C          0.09418   
         C14       1.0000    0.44030   0.52280   0.06090   Biso      1.000     C          0.5149050000000001  
         C15       1.0000    0.45500   0.26890   0.33930   Biso      1.000     C          0.09419   
         C16       1.0000    0.57370   0.28720   0.36820   Biso      1.000     C          -0.09421  
         C17       1.0000    0.60070   0.23420   0.48550   Biso      1.000     C          -0.059676           
         C18       1.0000    0.39110   0.14940   0.53730   Biso      1.000     C          0.061151  
         C19       1.0000    0.28580   0.07010   0.61940   Biso      1.000     C          0.540586  
         C20       1.0000    0.53360   0.11650   0.70520   Biso      1.000     C          0.686815  
         C21       1.0000    0.04580   0.68170   0.45110   Biso      1.000     C          0.099708  
         C22       1.0000    0.17090   0.58300   0.43090   Biso      1.000     C          -0.096241           
         C23       1.0000    0.21530   0.51290   0.53750   Biso      1.000     C          -0.071305           
         C24       1.0000    0.13250   0.54040   0.66170   Biso      1.000     C          -0.020742           
         C25       1.0000    0.00670   0.63880   0.67320   Biso      1.000     C          0.07885700000000001           
         C26       1.0000    0.90090   0.67030   0.80110   Biso      1.000     C          0.558538  
         C27       1.0000    0.18580   0.46200   0.77600   Biso      1.000     C          0.605355  
         C28       1.0000    0.55970   0.47720   0.93910   Biso      1.000     C          0.514903  
         C29       1.0000    0.09910   0.32970   0.19890   Biso      1.000     C          0.5585399999999999  
         C30       1.0000    0.81420   0.53800   0.22400   Biso      1.000     C          0.605349  
         Gd1       1.0000    0.67484   0.69283   0.03667   Biso      1.000     Gd          2.006004  
         Gd2       1.0000    0.32516   0.30717   0.96333   Biso      1.000     Gd          2.0060189999999998  
         H1        1.0000    0.22420   0.56400   0.34730   Biso      1.000     H          0.138008  
         H2        1.0000    0.56380   0.69440   0.73980   Biso      1.000     H          0.092722  
         H3        1.0000    0.36570   0.66540   0.69070   Biso      1.000     H          0.129354  
         H4        1.0000    0.31900   0.75570   0.49390   Biso      1.000     H          0.113925  
         H5        1.0000    0.77580   0.43600   0.65270   Biso      1.000     H          0.138014  
         H6        1.0000    0.98320   0.26990   0.62030   Biso      1.000     H          0.11815999999999999           
         H7        1.0000    0.43620   0.30560   0.26020   Biso      1.000     H          0.092727  
         H8        1.0000    0.63430   0.33460   0.30930   Biso      1.000     H          0.12936   
         H9        1.0000    0.30030   0.44750   0.52590   Biso      1.000     H          0.117967  
         H10       1.0000    0.68100   0.24430   0.50610   Biso      1.000     H          0.113929  
         H11       1.0000    0.01680   0.73010   0.37970   Biso      1.000     H          0.118153  
         H12       1.0000    0.69970   0.55250   0.47410   Biso      1.000     H          0.11797200000000001           
         N1        1.0000    0.63360   0.79960   0.57920   Biso      1.000     N          -0.23018400000000003          
         N2        1.0000    0.96530   0.70980   0.56990   Biso      1.000     N          -0.25317199999999995          
         N3        1.0000    0.36640   0.20040   0.42080   Biso      1.000     N          -0.230173           
         N4        1.0000    0.03470   0.29020   0.43010   Biso      1.000     N          -0.253168           
         Ni1       1.0000    0.78685   0.86753   0.62009   Biso      1.000     Ni          0.786465  
         Ni2       1.0000    0.21315   0.13247   0.37991   Biso      1.000     Ni          0.786504  
         O1        1.0000    0.16970   0.34730   0.80650   Biso      1.000     O          -0.600958           
         O2        1.0000    0.25350   0.51080   0.82890   Biso      1.000     O          -0.60487  
         O3        1.0000    0.78810   0.76160   0.79933   Biso      1.000     O          -0.6305569999999999           
         O4        1.0000    0.92100   0.60390   0.90298   Biso      1.000     O          -0.520738           
         O5        1.0000    0.61710   0.00810   0.72265   Biso      1.000     O          -0.55052  
         O6        1.0000    0.47360   0.19540   0.79032   Biso      1.000     O          -0.691072           
         O7        1.0000    0.29370   0.02670   0.73153   Biso      1.000     O          -0.514837           
         O8        1.0000    0.19810   0.05160   0.56454   Biso      1.000     O          -0.558856           
         O9        1.0000    0.33630   0.46830   0.09314   Biso      1.000     O          -0.604105           
         O10       1.0000    0.80190   0.94840   0.43546   Biso      1.000     O          -0.558895           
         O11       1.0000    0.83030   0.65270   0.19350   Biso      1.000     O          -0.600943           
         O12       1.0000    0.74650   0.48920   0.17110   Biso      1.000     O          -0.60487  
         O13       1.0000    0.21190   0.23840   0.20067   Biso      1.000     O          -0.630549           
         O14       1.0000    0.07900   0.39610   0.09702   Biso      1.000     O          -0.520717           
         O15       1.0000    0.38290   0.99190   0.27735   Biso      1.000     O          -0.550521           
         O16       1.0000    0.52640   0.80460   0.20968   Biso      1.000     O          -0.691064           
         O17       1.0000    0.70630   0.97330   0.26847   Biso      1.000     O          -0.514877           
         O18       1.0000    0.54350   0.39170   0.88250   Biso      1.000     O          -0.581304           
         O19       1.0000    0.45650   0.60830   0.11750   Biso      1.000     O          -0.5813010000000001           
         O20       1.0000    0.66370   0.53170   0.90686   Biso      1.000     O          -0.6041 