
##########################################################################
#               Crystallographic Information Format file
#               Produced by PyCifRW module
#
#  This is a CIF file.  CIF has been adopted by the International
#  Union of Crystallography as the standard for data archiving and
#  transmission.
#
#  For information on this file format, follow the CIF links at
#  http://www.iucr.org
##########################################################################

data_image0

_cell_length_a                          19.685
_cell_length_b                          7.849
_cell_length_c                          6.782
_cell_angle_alpha                       90
_cell_angle_beta                        75.0994
_cell_angle_gamma                       90
_symmetry_space_group_name_H-M          'P 1'
_symmetry_int_tables_number             1
loop_
  _symmetry_equiv_pos_as_xyz
         'x, y, z' 
loop_
  _atom_site_label
  _atom_site_occupancy
  _atom_site_fract_x
  _atom_site_fract_y
  _atom_site_fract_z
  _atom_site_thermal_displace_type
  _atom_site_B_iso_or_equiv
  _atom_site_type_symbol
  _atom_site_charge
         C1        1.0000    0.11100   0.19000   0.17000   Biso      1.000     C          0.634253  
         C2        1.0000    0.30200   0.79600   0.61800   Biso      1.000     C          -0.08493099999999999          
         C3        1.0000    0.27100   0.68000   0.29600   Biso      1.000     C          -0.092066           
         C4        1.0000    0.31600   0.71000   0.42100   Biso      1.000     C          -0.033725           
         C5        1.0000    0.88900   0.81000   0.83000   Biso      1.000     C          0.634253  
         C6        1.0000    0.80200   0.70400   0.11800   Biso      1.000     C          -0.088706           
         C7        1.0000    0.77100   0.82000   0.79600   Biso      1.000     C          -0.09395  
         C8        1.0000    0.38900   0.31000   0.83000   Biso      1.000     C          0.639081  
         C9        1.0000    0.30200   0.20400   0.11800   Biso      1.000     C          -0.085744           
         C10       1.0000    0.38900   0.69000   0.33000   Biso      1.000     C          0.638746  
         C11       1.0000    0.27100   0.32000   0.79600   Biso      1.000     C          -0.092183           
         C12       1.0000    0.11100   0.81000   0.67000   Biso      1.000     C          0.631724  
         C13       1.0000    0.19800   0.70400   0.38200   Biso      1.000     C          -0.088913           
         C14       1.0000    0.22900   0.82000   0.70400   Biso      1.000     C          -0.093846           
         C15       1.0000    0.18400   0.79000   0.57900   Biso      1.000     C          -0.034733           
         C16       1.0000    0.61100   0.31000   0.67000   Biso      1.000     C          0.638746  
         C17       1.0000    0.69800   0.20400   0.38200   Biso      1.000     C          -0.08493099999999999          
         C18       1.0000    0.72900   0.32000   0.70400   Biso      1.000     C          -0.092066           
         C19       1.0000    0.68400   0.29000   0.57900   Biso      1.000     C          -0.033725           
         C20       1.0000    0.31600   0.29000   0.92100   Biso      1.000     C          -0.033943           
         C21       1.0000    0.81600   0.21000   0.42100   Biso      1.000     C          -0.034733999999999994         
         C22       1.0000    0.81600   0.79000   0.92100   Biso      1.000     C          -0.033851           
         C23       1.0000    0.18400   0.21000   0.07900   Biso      1.000     C          -0.033852           
         C24       1.0000    0.69800   0.79600   0.88200   Biso      1.000     C          -0.085744           
         C25       1.0000    0.61100   0.69000   0.17000   Biso      1.000     C          0.639081  
         C26       1.0000    0.77100   0.18000   0.29600   Biso      1.000     C          -0.093845           
         C27       1.0000    0.72900   0.68000   0.20400   Biso      1.000     C          -0.092183           
         C28       1.0000    0.68400   0.71000   0.07900   Biso      1.000     C          -0.033943           
         C29       1.0000    0.80200   0.29600   0.61800   Biso      1.000     C          -0.088913           
         C30       1.0000    0.19800   0.29600   0.88200   Biso      1.000     C          -0.088706           
         C31       1.0000    0.22900   0.18000   0.20400   Biso      1.000     C          -0.093948           
         C32       1.0000    0.88900   0.19000   0.33000   Biso      1.000     C          0.631724  
         Cr1       1.0000    0.50000   0.50000   0.00000   Biso      1.000     Cr          1.6433060000000002  
         Cr2       1.0000    0.00000   0.00000   0.00000   Biso      1.000     Cr          1.622378  
         Cr3       1.0000    0.50000   0.50000   0.50000   Biso      1.000     Cr          1.6432939999999998  
         Cr4       1.0000    0.00000   0.00000   0.50000   Biso      1.000     Cr          1.6007770000000001  
         H1        1.0000    0.15552   0.33862   0.80656   Biso      1.000     H          0.137679  
         H2        1.0000    0.20786   0.13774   0.36922   Biso      1.000     H          0.119691  
         H3        1.0000    0.50000   0.74040   0.75000   Biso      1.000     H          0.42797799999999997           
         H4        1.0000    0.29214   0.36226   0.63078   Biso      1.000     H          0.12031700000000001           
         H5        1.0000    0.34448   0.16138   0.19344   Biso      1.000     H          0.139237  
         H6        1.0000    0.15552   0.66138   0.30656   Biso      1.000     H          0.13797   
         H7        1.0000    0.00000   0.75960   0.25000   Biso      1.000     H          0.43101000000000006           
         H8        1.0000    0.79214   0.86226   0.63078   Biso      1.000     H          0.119691  
         H9        1.0000    0.20786   0.86226   0.86922   Biso      1.000     H          0.11969   
         H10       1.0000    0.84448   0.66138   0.19344   Biso      1.000     H          0.137678  
         H11       1.0000    0.65552   0.16138   0.30656   Biso      1.000     H          0.139468  
         H12       1.0000    0.70786   0.36226   0.86922   Biso      1.000     H          0.12043800000000002           
         H13       1.0000    0.65552   0.83862   0.80656   Biso      1.000     H          0.139237  
         H14       1.0000    0.29214   0.63774   0.13078   Biso      1.000     H          0.12043800000000002           
         H15       1.0000    0.34448   0.83862   0.69344   Biso      1.000     H          0.139468  
         H16       1.0000    0.50000   0.25960   0.25000   Biso      1.000     H          0.42797799999999997           
         H17       1.0000    0.70786   0.63774   0.36922   Biso      1.000     H          0.12031700000000001           
         H18       1.0000    0.00000   0.24040   0.75000   Biso      1.000     H          0.43101000000000006           
         H19       1.0000    0.84448   0.33862   0.69344   Biso      1.000     H          0.13797   
         H20       1.0000    0.79214   0.13774   0.13078   Biso      1.000     H          0.11969   
         O1        1.0000    0.50000   0.38700   0.25000   Biso      1.000     O          -0.970584           
         O2        1.0000    0.00000   0.88700   0.25000   Biso      1.000     O          -0.9347190000000001           
         O3        1.0000    0.58700   0.35900   0.84800   Biso      1.000     O          -0.5782470000000001           
         O4        1.0000    0.56800   0.33400   0.55500   Biso      1.000     O          -0.659742           
         O5        1.0000    0.93200   0.16600   0.44500   Biso      1.000     O          -0.642202           
         O6        1.0000    0.41300   0.35900   0.65200   Biso      1.000     O          -0.578308           
         O7        1.0000    0.08700   0.85900   0.84800   Biso      1.000     O          -0.5751649999999999           
         O8        1.0000    0.06800   0.83400   0.55500   Biso      1.000     O          -0.642202           
         O9        1.0000    0.08700   0.14100   0.34800   Biso      1.000     O          -0.577017           
         O10       1.0000    0.43200   0.33400   0.94500   Biso      1.000     O          -0.659798           
         O11       1.0000    0.91300   0.85900   0.65200   Biso      1.000     O          -0.577017           
         O12       1.0000    0.93200   0.83400   0.94500   Biso      1.000     O          -0.659788           
         O13       1.0000    0.00000   0.11300   0.75000   Biso      1.000     O          -0.9347190000000001           
         O14       1.0000    0.56800   0.66600   0.05500   Biso      1.000     O          -0.659798           
         O15       1.0000    0.58700   0.64100   0.34800   Biso      1.000     O          -0.578308           
         O16       1.0000    0.41300   0.64100   0.15200   Biso      1.000     O          -0.5782470000000001           
         O17       1.0000    0.43200   0.66600   0.44500   Biso      1.000     O          -0.659742           
         O18       1.0000    0.91300   0.14100   0.15200   Biso      1.000     O          -0.5751649999999999           
         O19       1.0000    0.06800   0.16600   0.05500   Biso      1.000     O          -0.659788           
         O20       1.0000    0.50000   0.61300   0.75000   Biso      1.000     O          -0.970584 