
##########################################################################
#               Crystallographic Information Format file
#               Produced by PyCifRW module
#
#  This is a CIF file.  CIF has been adopted by the International
#  Union of Crystallography as the standard for data archiving and
#  transmission.
#
#  For information on this file format, follow the CIF links at
#  http://www.iucr.org
##########################################################################

data_image0

_cell_length_a                          13.447
_cell_length_b                          13.715
_cell_length_c                          14.301
_cell_angle_alpha                       79.48
_cell_angle_beta                        63.9
_cell_angle_gamma                       65.68
_symmetry_space_group_name_H-M          'P 1'
_symmetry_int_tables_number             1
loop_
  _symmetry_equiv_pos_as_xyz
         'x, y, z' 
loop_
  _atom_site_label
  _atom_site_occupancy
  _atom_site_fract_x
  _atom_site_fract_y
  _atom_site_fract_z
  _atom_site_thermal_displace_type
  _atom_site_B_iso_or_equiv
  _atom_site_type_symbol
  _atom_site_charge
         C1        1.0000    0.22380   0.99350   0.51400   Biso      1.000     C          0.114811  
         C2        1.0000    0.86180   0.58530   0.47600   Biso      1.000     C          -0.19024000000000002          
         C3        1.0000    0.12190   0.02740   0.38140   Biso      1.000     C          -0.189607           
         C4        1.0000    0.23000   0.03550   0.35340   Biso      1.000     C          0.096576  
         C5        1.0000    0.18610   0.30310   0.36400   Biso      1.000     C          0.09966900000000001           
         C6        1.0000    0.62660   0.49960   0.98370   Biso      1.000     C          0.079677  
         C7        1.0000    0.08220   0.39250   0.39820   Biso      1.000     C          -0.191681           
         C8        1.0000    0.62130   0.41430   0.13580   Biso      1.000     C          0.084959  
         C9        1.0000    0.11410   0.98430   0.54880   Biso      1.000     C          -0.18273699999999998          
         C10       1.0000    0.56490   0.79530   0.10950   Biso      1.000     C          -0.179423           
         C11       1.0000    0.60010   0.50630   0.18040   Biso      1.000     C          -0.198234           
         C12       1.0000    0.51720   0.80560   0.31230   Biso      1.000     C          0.08922999999999999           
         C13       1.0000    0.05930   0.00320   0.48260   Biso      1.000     C          0.10818499999999999           
         C14       1.0000    0.79850   0.94690   0.18440   Biso      1.000     C          0.096578  
         C15       1.0000    0.13820   0.41470   0.52400   Biso      1.000     C          -0.19024100000000002          
         C16       1.0000    0.56240   0.70320   0.16880   Biso      1.000     C          0.114203  
         C17       1.0000    0.93740   0.00490   0.03630   Biso      1.000     C          0.10326600000000001           
         C18       1.0000    0.05560   0.45070   0.48020   Biso      1.000     C          0.106643  
         C19       1.0000    0.23910   0.32420   0.48570   Biso      1.000     C          0.11049500000000001           
         C20       1.0000    0.72470   0.09400   0.09710   Biso      1.000     C          0.106802  
         C21       1.0000    0.58790   0.60220   0.12300   Biso      1.000     C          0.088158  
         C22       1.0000    0.83790   0.08530   0.02580   Biso      1.000     C          -0.185119           
         C23       1.0000    0.60120   0.59650   0.02160   Biso      1.000     C          -0.184095           
         C24       1.0000    0.54720   0.88620   0.15240   Biso      1.000     C          0.09073400000000001           
         C25       1.0000    0.43760   0.29680   0.83120   Biso      1.000     C          0.114203  
         C26       1.0000    0.06260   0.99510   0.96370   Biso      1.000     C          0.10326700000000001           
         C27       1.0000    0.94440   0.54930   0.51980   Biso      1.000     C          0.106637  
         C28       1.0000    0.76090   0.67580   0.51430   Biso      1.000     C          0.11049500000000001           
         C29       1.0000    0.87810   0.97260   0.61860   Biso      1.000     C          -0.189607           
         C30       1.0000    0.77000   0.96450   0.64660   Biso      1.000     C          0.096576  
         C31       1.0000    0.81390   0.69690   0.63600   Biso      1.000     C          0.09966799999999999           
         C32       1.0000    0.37340   0.50040   0.01630   Biso      1.000     C          0.079677  
         C33       1.0000    0.91780   0.60750   0.60180   Biso      1.000     C          -0.191674           
         C34       1.0000    0.37870   0.58570   0.86420   Biso      1.000     C          0.084959  
         C35       1.0000    0.88590   0.01570   0.45120   Biso      1.000     C          -0.182738           
         C36       1.0000    0.91490   0.93370   0.11810   Biso      1.000     C          -0.19489700000000001          
         C37       1.0000    0.39990   0.49370   0.81960   Biso      1.000     C          -0.198234           
         C38       1.0000    0.48280   0.19440   0.68770   Biso      1.000     C          0.089229  
         C39       1.0000    0.43510   0.20470   0.89050   Biso      1.000     C          -0.179423           
         C40       1.0000    0.20150   0.05310   0.81560   Biso      1.000     C          0.096578  
         C41       1.0000    0.46270   0.28860   0.72680   Biso      1.000     C          -0.190503           
         C42       1.0000    0.77620   0.00650   0.48600   Biso      1.000     C          0.114811  
         C43       1.0000    0.08510   0.06630   0.88190   Biso      1.000     C          -0.19489700000000001          
         C44       1.0000    0.45280   0.11380   0.84760   Biso      1.000     C          0.09073400000000001           
         C45       1.0000    0.39880   0.40350   0.97840   Biso      1.000     C          -0.184096           
         C46       1.0000    0.16210   0.91470   0.97420   Biso      1.000     C          -0.185122           
         C47       1.0000    0.41210   0.39780   0.87700   Biso      1.000     C          0.088159  
         C48       1.0000    0.27530   0.90600   0.90290   Biso      1.000     C          0.106805  
         C49       1.0000    0.94070   0.99680   0.51740   Biso      1.000     C          0.10818399999999999           
         C50       1.0000    0.53730   0.71140   0.27320   Biso      1.000     C          -0.190503           
         Cl1       1.0000    0.62238   0.90561   0.42834   Biso      1.000     Cl          -0.577365           
         Cl2       1.0000    0.42544   0.15895   0.16576   Biso      1.000     Cl          -0.603496           
         Cl3       1.0000    0.57230   0.21677   0.35697   Biso      1.000     Cl          -0.627436           
         Cl4       1.0000    0.37762   0.09439   0.57166   Biso      1.000     Cl          -0.577365           
         Cl5       1.0000    0.42770   0.78323   0.64303   Biso      1.000     Cl          -0.627436           
         Cl6       1.0000    0.57456   0.84105   0.83424   Biso      1.000     Cl          -0.603496           
         H1        1.0000    0.90970   0.96150   0.66920   Biso      1.000     H          0.12725   
         H2        1.0000    0.63820   0.49760   0.91350   Biso      1.000     H          0.087008  
         H3        1.0000    0.02900   0.41380   0.36490   Biso      1.000     H          0.126274  
         H4        1.0000    0.62540   0.35160   0.17760   Biso      1.000     H          0.084426  
         H5        1.0000    0.57890   0.79550   0.03830   Biso      1.000     H          0.126398  
         H6        1.0000    0.59380   0.50460   0.24940   Biso      1.000     H          0.122084  
         H7        1.0000    0.49870   0.80840   0.38420   Biso      1.000     H          0.090968  
         H8        1.0000    0.78600   0.89570   0.23840   Biso      1.000     H          0.087379  
         H9        1.0000    0.53390   0.65140   0.31800   Biso      1.000     H          0.127828  
         H10       1.0000    0.25980   0.97880   0.56180   Biso      1.000     H          0.083026  
         H11       1.0000    0.97930   0.87610   0.12850   Biso      1.000     H          0.128816  
         H12       1.0000    0.55280   0.94640   0.10840   Biso      1.000     H          0.091302  
         H13       1.0000    0.59290   0.65870   0.97900   Biso      1.000     H          0.124352  
         H14       1.0000    0.84780   0.13440   0.96940   Biso      1.000     H          0.12671500000000002           
         H15       1.0000    0.65860   0.15100   0.08870   Biso      1.000     H          0.090488  
         H16       1.0000    0.29350   0.30140   0.51810   Biso      1.000     H          0.08684299999999999           
         H17       1.0000    0.12510   0.45240   0.58050   Biso      1.000     H          0.125993  
         H18       1.0000    0.20200   0.26500   0.30670   Biso      1.000     H          0.082097  
         H19       1.0000    0.27050   0.05210   0.28280   Biso      1.000     H          0.079986  
         H20       1.0000    0.07670   0.96470   0.61910   Biso      1.000     H          0.125916  
         H21       1.0000    0.87490   0.54760   0.41950   Biso      1.000     H          0.125993  
         H22       1.0000    0.72950   0.94790   0.71720   Biso      1.000     H          0.079986  
         H23       1.0000    0.79800   0.73500   0.69330   Biso      1.000     H          0.082097  
         H24       1.0000    0.36180   0.50240   0.08650   Biso      1.000     H          0.087008  
         H25       1.0000    0.09030   0.03850   0.33080   Biso      1.000     H          0.12725   
         H26       1.0000    0.37460   0.64840   0.82240   Biso      1.000     H          0.084426  
         H27       1.0000    0.92330   0.03530   0.38090   Biso      1.000     H          0.125916  
         H28       1.0000    0.42110   0.20450   0.96170   Biso      1.000     H          0.126398  
         H29       1.0000    0.40620   0.49540   0.75060   Biso      1.000     H          0.122084  
         H30       1.0000    0.50130   0.19160   0.61580   Biso      1.000     H          0.090968  
         H31       1.0000    0.97100   0.58620   0.63510   Biso      1.000     H          0.126273  
         H32       1.0000    0.46610   0.34860   0.68200   Biso      1.000     H          0.127828  
         H33       1.0000    0.74020   0.02120   0.43820   Biso      1.000     H          0.083026  
         H34       1.0000    0.02070   0.12390   0.87150   Biso      1.000     H          0.128816  
         H35       1.0000    0.44720   0.05360   0.89160   Biso      1.000     H          0.091301  
         H36       1.0000    0.40710   0.34130   0.02100   Biso      1.000     H          0.124352  
         H37       1.0000    0.70650   0.69860   0.48190   Biso      1.000     H          0.08684299999999999           
         H38       1.0000    0.34140   0.84900   0.91130   Biso      1.000     H          0.090488  
         H39       1.0000    0.15220   0.86560   0.03060   Biso      1.000     H          0.126716  
         H40       1.0000    0.21400   0.10430   0.76160   Biso      1.000     H          0.087379  
         La1       1.0000    0.52419   0.91954   0.65813   Biso      1.000     La          1.4794049999999999  
         La2       1.0000    0.47581   0.08046   0.34187   Biso      1.000     La          1.4794049999999999  
         N1        1.0000    0.47750   0.10540   0.74630   Biso      1.000     N          -0.29733899999999996          
         N2        1.0000    0.73370   0.73370   0.59350   Biso      1.000     N          -0.272437           
         N3        1.0000    0.71840   0.97810   0.58290   Biso      1.000     N          -0.272519           
         N4        1.0000    0.36360   0.59250   0.96160   Biso      1.000     N          -0.28430500000000003          
         N5        1.0000    0.28160   0.02190   0.41710   Biso      1.000     N          -0.272519           
         N6        1.0000    0.26630   0.26630   0.40650   Biso      1.000     N          -0.272437           
         N7        1.0000    0.52250   0.89460   0.25370   Biso      1.000     N          -0.29733899999999996          
         N8        1.0000    0.70200   0.02700   0.17780   Biso      1.000     N          -0.27310500000000004          
         N9        1.0000    0.63640   0.40750   0.03840   Biso      1.000     N          -0.28430500000000003          
         N10       1.0000    0.29800   0.97300   0.82220   Biso      1.000     N          -0.273106 