
##########################################################################
#               Crystallographic Information Format file
#               Produced by PyCifRW module
#
#  This is a CIF file.  CIF has been adopted by the International
#  Union of Crystallography as the standard for data archiving and
#  transmission.
#
#  For information on this file format, follow the CIF links at
#  http://www.iucr.org
##########################################################################

data_image0

_cell_length_a                          4.9387
_cell_length_b                          8.1856
_cell_length_c                          12.06
_cell_angle_alpha                       90
_cell_angle_beta                        90
_cell_angle_gamma                       92.045
_symmetry_space_group_name_H-M          'P 1'
_symmetry_int_tables_number             1
loop_
  _symmetry_equiv_pos_as_xyz
         'x, y, z' 
loop_
  _atom_site_label
  _atom_site_occupancy
  _atom_site_fract_x
  _atom_site_fract_y
  _atom_site_fract_z
  _atom_site_thermal_displace_type
  _atom_site_B_iso_or_equiv
  _atom_site_type_symbol
  _atom_site_charge
         Al1       1.0000    0.75440   0.86180   0.25000   Biso      1.000     Al          1.8131830000000002  
         Al2       1.0000    0.24560   0.13820   0.75000   Biso      1.000     Al          1.813184  
         Al3       1.0000    0.50000   0.00000   0.50000   Biso      1.000     Al          1.788693  
         Al4       1.0000    0.50000   0.00000   0.00000   Biso      1.000     Al          1.7886939999999998  
         C1        1.0000    0.91800   0.56440   0.96860   Biso      1.000     C          -0.41503500000000004          
         C2        1.0000    0.08200   0.43560   0.46860   Biso      1.000     C          -0.41503500000000004          
         C3        1.0000    0.91800   0.56440   0.53140   Biso      1.000     C          -0.41503500000000004          
         C4        1.0000    0.08200   0.43560   0.03140   Biso      1.000     C          -0.41503500000000004          
         F1        1.0000    0.55720   0.96420   0.14720   Biso      1.000     F          -0.567012           
         F2        1.0000    0.44280   0.03580   0.85280   Biso      1.000     F          -0.567012           
         F3        1.0000    0.55720   0.96420   0.35280   Biso      1.000     F          -0.567012           
         F4        1.0000    0.44280   0.03580   0.64720   Biso      1.000     F          -0.567012           
         H1        1.0000    0.93700   0.56500   0.88200   Biso      1.000     H          0.163055  
         H2        1.0000    0.69600   0.55100   0.97200   Biso      1.000     H          0.133472  
         H3        1.0000    0.69600   0.55100   0.52800   Biso      1.000     H          0.133472  
         H4        1.0000    0.30400   0.44900   0.47200   Biso      1.000     H          0.133472  
         H5        1.0000    0.93700   0.56500   0.61800   Biso      1.000     H          0.163055  
         H6        1.0000    0.06300   0.43500   0.11800   Biso      1.000     H          0.163055  
         H7        1.0000    0.30400   0.44900   0.02800   Biso      1.000     H          0.133472  
         H8        1.0000    0.06300   0.43500   0.38200   Biso      1.000     H          0.163055  
         O1        1.0000    0.94640   0.76290   0.14290   Biso      1.000     O          -0.874135           
         O2        1.0000    0.28200   0.80770   0.99170   Biso      1.000     O          -0.843825           
         O3        1.0000    0.79720   0.87820   0.95820   Biso      1.000     O          -0.879336           
         O4        1.0000    0.05360   0.23710   0.64290   Biso      1.000     O          -0.874136           
         O5        1.0000    0.71800   0.19230   0.49170   Biso      1.000     O          -0.843825           
         O6        1.0000    0.20280   0.12180   0.45820   Biso      1.000     O          -0.879336           
         O7        1.0000    0.05360   0.23710   0.85710   Biso      1.000     O          -0.874136           
         O8        1.0000    0.20280   0.12180   0.04180   Biso      1.000     O          -0.879336           
         O9        1.0000    0.94640   0.76290   0.35710   Biso      1.000     O          -0.874135           
         O10       1.0000    0.79720   0.87820   0.54180   Biso      1.000     O          -0.879337           
         O11       1.0000    0.71800   0.19230   0.00830   Biso      1.000     O          -0.843825           
         O12       1.0000    0.28200   0.80770   0.50830   Biso      1.000     O          -0.843824           
         P1        1.0000    0.99100   0.76590   0.01753   Biso      1.000     P          1.481878  
         P2        1.0000    0.99100   0.76590   0.48247   Biso      1.000     P          1.481878  
         P3        1.0000    0.00900   0.23410   0.98247   Biso      1.000     P          1.4818790000000002  
         P4        1.0000    0.00900   0.23410   0.51753   Biso      1.000     P          1.481878 