
##########################################################################
#               Crystallographic Information Format file
#               Produced by PyCifRW module
#
#  This is a CIF file.  CIF has been adopted by the International
#  Union of Crystallography as the standard for data archiving and
#  transmission.
#
#  For information on this file format, follow the CIF links at
#  http://www.iucr.org
##########################################################################

data_image0

_cell_length_a                          12.4895
_cell_length_b                          12.4895
_cell_length_c                          18.254
_cell_angle_alpha                       98.7567
_cell_angle_beta                        98.7567
_cell_angle_gamma                       116.378
_symmetry_space_group_name_H-M          'P 1'
_symmetry_int_tables_number             1
loop_
  _symmetry_equiv_pos_as_xyz
         'x, y, z' 
loop_
  _atom_site_label
  _atom_site_occupancy
  _atom_site_fract_x
  _atom_site_fract_y
  _atom_site_fract_z
  _atom_site_thermal_displace_type
  _atom_site_B_iso_or_equiv
  _atom_site_type_symbol
  _atom_site_charge
         B1        1.0000    0.71150   0.03430   0.94530   Biso      1.000     B          0.51764   
         B2        1.0000    0.96570   0.28850   0.55470   Biso      1.000     B          0.51764   
         B3        1.0000    0.28850   0.96570   0.05470   Biso      1.000     B          0.51764   
         B4        1.0000    0.03430   0.71150   0.44530   Biso      1.000     B          0.51764   
         C1        1.0000    0.85620   0.23900   0.41310   Biso      1.000     C          0.124379  
         C2        1.0000    0.76030   0.28290   0.49080   Biso      1.000     C          -0.046208           
         C3        1.0000    0.94810   0.40170   0.68280   Biso      1.000     C          -0.065961           
         C4        1.0000    0.01510   0.51070   0.73280   Biso      1.000     C          -0.025056           
         C5        1.0000    0.10690   0.50690   0.64470   Biso      1.000     C          0.137595  
         C6        1.0000    0.55610   0.78290   0.39110   Biso      1.000     C          0.577509  
         C7        1.0000    0.48190   0.72790   0.24790   Biso      1.000     C          -0.090026           
         C8        1.0000    0.46060   0.70420   0.31870   Biso      1.000     C          -0.014885           
         C9        1.0000    0.61130   0.71230   0.67150   Biso      1.000     C          0.566872  
         C10       1.0000    0.69390   0.25170   0.41890   Biso      1.000     C          -0.029693           
         C11       1.0000    0.52860   0.62880   0.71310   Biso      1.000     C          -0.015948           
         C12       1.0000    0.55660   0.65380   0.79110   Biso      1.000     C          -0.097182           
         C13       1.0000    0.42180   0.52380   0.67160   Biso      1.000     C          -0.134162           
         C14       1.0000    0.14180   0.95900   0.14590   Biso      1.000     C          -0.095305           
         C15       1.0000    0.02540   0.88500   0.14580   Biso      1.000     C          -0.025663           
         C16       1.0000    0.35500   0.60160   0.31850   Biso      1.000     C          -0.145045           
         C17       1.0000    0.13970   0.23970   0.52140   Biso      1.000     C          0.144999  
         C18       1.0000    0.81130   0.06190   0.54420   Biso      1.000     C          0.143857  
         C19       1.0000    0.22950   0.37950   0.46400   Biso      1.000     C          -0.016122           
         C20       1.0000    0.74830   0.30610   0.08110   Biso      1.000     C          -0.029723           
         C21       1.0000    0.71710   0.23970   0.00920   Biso      1.000     C          -0.046177           
         C22       1.0000    0.59830   0.05190   0.81720   Biso      1.000     C          -0.065961           
         C23       1.0000    0.48930   0.98490   0.76720   Biso      1.000     C          -0.025056           
         C24       1.0000    0.49310   0.89310   0.85530   Biso      1.000     C          0.137595  
         C25       1.0000    0.21710   0.44390   0.10890   Biso      1.000     C          0.577509  
         C26       1.0000    0.27210   0.51810   0.25210   Biso      1.000     C          -0.090025           
         C27       1.0000    0.29580   0.53940   0.18130   Biso      1.000     C          -0.014885           
         C28       1.0000    0.39840   0.64500   0.18150   Biso      1.000     C          -0.145044           
         C29       1.0000    0.28770   0.38870   0.82850   Biso      1.000     C          0.566871  
         C30       1.0000    0.37120   0.47140   0.78690   Biso      1.000     C          -0.015948           
         C31       1.0000    0.34620   0.44340   0.70890   Biso      1.000     C          -0.09718  
         C32       1.0000    0.47620   0.57820   0.82840   Biso      1.000     C          -0.13416  
         C33       1.0000    0.88500   0.02540   0.64580   Biso      1.000     C          -0.025695           
         C34       1.0000    0.06190   0.81130   0.04420   Biso      1.000     C          0.143857  
         C35       1.0000    0.13700   0.39400   0.48420   Biso      1.000     C          -0.111812           
         C36       1.0000    0.37950   0.22950   0.96400   Biso      1.000     C          -0.016122           
         C37       1.0000    0.23900   0.85620   0.91310   Biso      1.000     C          0.124378  
         C38       1.0000    0.23970   0.13970   0.02140   Biso      1.000     C          0.144999  
         C39       1.0000    0.86030   0.76030   0.47860   Biso      1.000     C          0.144999  
         C40       1.0000    0.14380   0.76100   0.58690   Biso      1.000     C          0.124378  
         C41       1.0000    0.30610   0.74830   0.58110   Biso      1.000     C          -0.029724           
         C42       1.0000    0.23970   0.71710   0.50920   Biso      1.000     C          -0.046178           
         C43       1.0000    0.05190   0.59830   0.31720   Biso      1.000     C          -0.065962           
         C44       1.0000    0.98490   0.48930   0.26720   Biso      1.000     C          -0.025056           
         C45       1.0000    0.89310   0.49310   0.35530   Biso      1.000     C          0.137596  
         C46       1.0000    0.44390   0.21710   0.60890   Biso      1.000     C          0.577509  
         C47       1.0000    0.51810   0.27210   0.75210   Biso      1.000     C          -0.090026           
         C48       1.0000    0.53940   0.29580   0.68130   Biso      1.000     C          -0.014885           
         C49       1.0000    0.64500   0.39840   0.68150   Biso      1.000     C          -0.145045           
         C50       1.0000    0.38870   0.28770   0.32850   Biso      1.000     C          0.566872  
         C51       1.0000    0.47140   0.37120   0.28690   Biso      1.000     C          -0.015948           
         C52       1.0000    0.44340   0.34620   0.20890   Biso      1.000     C          -0.097182           
         C53       1.0000    0.57820   0.47620   0.32840   Biso      1.000     C          -0.134162           
         C54       1.0000    0.86300   0.60600   0.51580   Biso      1.000     C          -0.111845           
         C55       1.0000    0.39400   0.13700   0.98420   Biso      1.000     C          -0.111812           
         C56       1.0000    0.77050   0.62050   0.53600   Biso      1.000     C          -0.016089           
         C57       1.0000    0.11500   0.97460   0.35420   Biso      1.000     C          -0.025695           
         C58       1.0000    0.76100   0.14380   0.08690   Biso      1.000     C          0.124379  
         C59       1.0000    0.25170   0.69390   0.91890   Biso      1.000     C          -0.029724           
         C60       1.0000    0.28290   0.76030   0.99080   Biso      1.000     C          -0.046178           
         C61       1.0000    0.40170   0.94810   0.18280   Biso      1.000     C          -0.065962           
         C62       1.0000    0.51070   0.01510   0.23280   Biso      1.000     C          -0.025056           
         C63       1.0000    0.50690   0.10690   0.14470   Biso      1.000     C          0.137596  
         C64       1.0000    0.78290   0.55610   0.89110   Biso      1.000     C          0.577509  
         C65       1.0000    0.72790   0.48190   0.74790   Biso      1.000     C          -0.090025           
         C66       1.0000    0.70420   0.46060   0.81870   Biso      1.000     C          -0.014885           
         C67       1.0000    0.60160   0.35500   0.81850   Biso      1.000     C          -0.145044           
         C68       1.0000    0.71230   0.61130   0.17150   Biso      1.000     C          0.566872  
         C69       1.0000    0.62880   0.52860   0.21310   Biso      1.000     C          -0.015948           
         C70       1.0000    0.65380   0.55660   0.29110   Biso      1.000     C          -0.09718  
         C71       1.0000    0.52380   0.42180   0.17160   Biso      1.000     C          -0.13416  
         C72       1.0000    0.04100   0.85820   0.35410   Biso      1.000     C          -0.095274           
         C73       1.0000    0.18870   0.93810   0.45580   Biso      1.000     C          0.143857  
         C74       1.0000    0.76030   0.86030   0.97860   Biso      1.000     C          0.144999  
         C75       1.0000    0.95900   0.14180   0.64590   Biso      1.000     C          -0.095274           
         C76       1.0000    0.62050   0.77050   0.03600   Biso      1.000     C          -0.016122           
         C77       1.0000    0.85820   0.04100   0.85410   Biso      1.000     C          -0.095305           
         C78       1.0000    0.60600   0.86300   0.01580   Biso      1.000     C          -0.111812           
         C79       1.0000    0.93810   0.18870   0.95580   Biso      1.000     C          0.143857  
         C80       1.0000    0.97460   0.11500   0.85420   Biso      1.000     C          -0.025663           
         H1        1.0000    0.33000   0.58000   0.35800   Biso      1.000     H          0.113299  
         H2        1.0000    0.58100   0.80700   0.25400   Biso      1.000     H          0.087518  
         H3        1.0000    0.15600   0.52800   0.61600   Biso      1.000     H          0.080237  
         H4        1.0000    0.00000   0.53600   0.77800   Biso      1.000     H          0.121599  
         H5        1.0000    0.88700   0.32900   0.68000   Biso      1.000     H          0.126043  
         H6        1.0000    0.74400   0.30200   0.53700   Biso      1.000     H          0.125985  
         H7        1.0000    0.02300   0.19500   0.68100   Biso      1.000     H          0.128719  
         H8        1.0000    0.91800   0.23200   0.39700   Biso      1.000     H          0.088399  
         H9        1.0000    0.12400   0.17600   0.54600   Biso      1.000     H          0.100945  
         H10       1.0000    0.12000   0.45000   0.47400   Biso      1.000     H          0.112193  
         H11       1.0000    0.28800   0.41600   0.43600   Biso      1.000     H          0.129737  
         H12       1.0000    0.76700   0.05300   0.49500   Biso      1.000     H          0.095061  
         H13       1.0000    0.89200   0.98000   0.68800   Biso      1.000     H          0.125081  
         H14       1.0000    0.63700   0.72900   0.82400   Biso      1.000     H          0.094442  
         H15       1.0000    0.62200   0.24400   0.40200   Biso      1.000     H          0.129375  
         H16       1.0000    0.49700   0.59700   0.88100   Biso      1.000     H          0.112634  
         H17       1.0000    0.42000   0.67000   0.14200   Biso      1.000     H          0.113299  
         H18       1.0000    0.19300   0.41900   0.24600   Biso      1.000     H          0.087518  
         H19       1.0000    0.47200   0.84400   0.88400   Biso      1.000     H          0.080237  
         H20       1.0000    0.46400   0.00000   0.72200   Biso      1.000     H          0.121599  
         H21       1.0000    0.67100   0.11300   0.82000   Biso      1.000     H          0.126043  
         H22       1.0000    0.69800   0.25600   0.96300   Biso      1.000     H          0.125983  
         H23       1.0000    0.75600   0.37800   0.09800   Biso      1.000     H          0.129377  
         H24       1.0000    0.76800   0.08200   0.10300   Biso      1.000     H          0.088399  
         H25       1.0000    0.82400   0.87600   0.95400   Biso      1.000     H          0.100945  
         H26       1.0000    0.55000   0.88000   0.02600   Biso      1.000     H          0.112193  
         H27       1.0000    0.58400   0.71200   0.06400   Biso      1.000     H          0.129737  
         H28       1.0000    0.94700   0.23300   0.00500   Biso      1.000     H          0.095061  
         H29       1.0000    0.02000   0.10800   0.81200   Biso      1.000     H          0.125079  
         H30       1.0000    0.80500   0.97700   0.81900   Biso      1.000     H          0.128721  
         H31       1.0000    0.40300   0.50300   0.61900   Biso      1.000     H          0.112634  
         H32       1.0000    0.19500   0.02300   0.18100   Biso      1.000     H          0.128721  
         H33       1.0000    0.27100   0.36300   0.67600   Biso      1.000     H          0.094442  
         H34       1.0000    0.05300   0.76700   0.99500   Biso      1.000     H          0.095061  
         H35       1.0000    0.98000   0.89200   0.18800   Biso      1.000     H          0.125079  
         H36       1.0000    0.59700   0.49700   0.38100   Biso      1.000     H          0.112634  
         H37       1.0000    0.36300   0.27100   0.17600   Biso      1.000     H          0.094442  
         H38       1.0000    0.67000   0.42000   0.64200   Biso      1.000     H          0.113299  
         H39       1.0000    0.41900   0.19300   0.74600   Biso      1.000     H          0.087518  
         H40       1.0000    0.84400   0.47200   0.38400   Biso      1.000     H          0.080237  
         H41       1.0000    0.00000   0.46400   0.22200   Biso      1.000     H          0.1216    
         H42       1.0000    0.11300   0.67100   0.32000   Biso      1.000     H          0.126043  
         H43       1.0000    0.25600   0.69800   0.46300   Biso      1.000     H          0.125983  
         H44       1.0000    0.08200   0.76800   0.60300   Biso      1.000     H          0.088399  
         H45       1.0000    0.87600   0.82400   0.45400   Biso      1.000     H          0.100945  
         H46       1.0000    0.88000   0.55000   0.52600   Biso      1.000     H          0.112195  
         H47       1.0000    0.71200   0.58400   0.56400   Biso      1.000     H          0.129735  
         H48       1.0000    0.23300   0.94700   0.50500   Biso      1.000     H          0.095061  
         H49       1.0000    0.10800   0.02000   0.31200   Biso      1.000     H          0.125081  
         H50       1.0000    0.37800   0.75600   0.59800   Biso      1.000     H          0.129377  
         H51       1.0000    0.45000   0.12000   0.97400   Biso      1.000     H          0.112193  
         H52       1.0000    0.97700   0.80500   0.31900   Biso      1.000     H          0.128719  
         H53       1.0000    0.17600   0.12400   0.04600   Biso      1.000     H          0.100945  
         H54       1.0000    0.23200   0.91800   0.89700   Biso      1.000     H          0.088399  
         H55       1.0000    0.24400   0.62200   0.90200   Biso      1.000     H          0.129377  
         H56       1.0000    0.41600   0.28800   0.93600   Biso      1.000     H          0.129737  
         H57       1.0000    0.32900   0.88700   0.18000   Biso      1.000     H          0.126044  
         H58       1.0000    0.53600   0.00000   0.27800   Biso      1.000     H          0.1216    
         H59       1.0000    0.30200   0.74400   0.03700   Biso      1.000     H          0.125983  
         H60       1.0000    0.80700   0.58100   0.75400   Biso      1.000     H          0.087518  
         H61       1.0000    0.58000   0.33000   0.85800   Biso      1.000     H          0.1133    
         H62       1.0000    0.72900   0.63700   0.32400   Biso      1.000     H          0.094442  
         H63       1.0000    0.50300   0.40300   0.11900   Biso      1.000     H          0.112634  
         H64       1.0000    0.52800   0.15600   0.11600   Biso      1.000     H          0.080237  
         N1        1.0000    0.86740   0.27680   0.48870   Biso      1.000     N          -0.212752           
         N2        1.0000    0.75550   0.22270   0.36820   Biso      1.000     N          -0.288351           
         N3        1.0000    0.00640   0.39580   0.62450   Biso      1.000     N          -0.181454           
         N4        1.0000    0.11800   0.57900   0.70840   Biso      1.000     N          -0.280407           
         N5        1.0000    0.97430   0.78870   0.08100   Biso      1.000     N          -0.288463           
         N6        1.0000    0.16700   0.91360   0.08100   Biso      1.000     N          -0.199696           
         N7        1.0000    0.27920   0.23020   0.98680   Biso      1.000     N          -0.274881           
         N8        1.0000    0.08640   0.83300   0.41900   Biso      1.000     N          -0.199699           
         N9        1.0000    0.22270   0.75550   0.86820   Biso      1.000     N          -0.288347           
         N10       1.0000    0.27680   0.86740   0.98870   Biso      1.000     N          -0.212755           
         N11       1.0000    0.39580   0.00640   0.12450   Biso      1.000     N          -0.181454           
         N12       1.0000    0.57900   0.11800   0.20840   Biso      1.000     N          -0.280409           
         N13       1.0000    0.08020   0.30680   0.52250   Biso      1.000     N          -0.193725           
         N14       1.0000    0.21130   0.02570   0.41900   Biso      1.000     N          -0.288459           
         N15       1.0000    0.30680   0.08020   0.02250   Biso      1.000     N          -0.193725           
         N16       1.0000    0.23020   0.27920   0.48680   Biso      1.000     N          -0.274881           
         N17       1.0000    0.88200   0.42100   0.29160   Biso      1.000     N          -0.280409           
         N18       1.0000    0.78870   0.97430   0.58100   Biso      1.000     N          -0.28846  
         N19       1.0000    0.76980   0.72080   0.51320   Biso      1.000     N          -0.274885           
         N20       1.0000    0.99360   0.60420   0.37550   Biso      1.000     N          -0.181454           
         N21       1.0000    0.13260   0.72320   0.51130   Biso      1.000     N          -0.212755           
         N22       1.0000    0.24450   0.77730   0.63180   Biso      1.000     N          -0.288347           
         N23       1.0000    0.91360   0.16700   0.58100   Biso      1.000     N          -0.199699           
         N24       1.0000    0.83300   0.08640   0.91900   Biso      1.000     N          -0.199696           
         N25       1.0000    0.02570   0.21130   0.91900   Biso      1.000     N          -0.288463           
         N26       1.0000    0.69320   0.91980   0.97750   Biso      1.000     N          -0.193725           
         N27       1.0000    0.77730   0.24450   0.13180   Biso      1.000     N          -0.288348           
         N28       1.0000    0.72320   0.13260   0.01130   Biso      1.000     N          -0.212755           
         N29       1.0000    0.60420   0.99360   0.87550   Biso      1.000     N          -0.181454           
         N30       1.0000    0.42100   0.88200   0.79160   Biso      1.000     N          -0.280407           
         N31       1.0000    0.72080   0.76980   0.01320   Biso      1.000     N          -0.274881           
         N32       1.0000    0.91980   0.69320   0.47750   Biso      1.000     N          -0.193723           
         O1        1.0000    0.56570   0.70270   0.60270   Biso      1.000     O          -0.550864           
         O2        1.0000    0.72170   0.78690   0.70580   Biso      1.000     O          -0.596247           
         O3        1.0000    0.47110   0.24710   0.54730   Biso      1.000     O          -0.578677           
         O4        1.0000    0.70270   0.56570   0.10270   Biso      1.000     O          -0.550864           
         O5        1.0000    0.78690   0.72170   0.20580   Biso      1.000     O          -0.596248           
         O6        1.0000    0.75290   0.52890   0.95270   Biso      1.000     O          -0.578677           
         O7        1.0000    0.52890   0.75290   0.45270   Biso      1.000     O          -0.578677           
         O8        1.0000    0.86700   0.65660   0.89120   Biso      1.000     O          -0.583474           
         O9        1.0000    0.34340   0.13300   0.60880   Biso      1.000     O          -0.583474           
         O10       1.0000    0.65660   0.86700   0.39120   Biso      1.000     O          -0.583474           
         O11       1.0000    0.43430   0.29730   0.39730   Biso      1.000     O          -0.550864           
         O12       1.0000    0.21310   0.27830   0.79420   Biso      1.000     O          -0.596248           
         O13       1.0000    0.24710   0.47110   0.04730   Biso      1.000     O          -0.578677           
         O14       1.0000    0.13300   0.34340   0.10880   Biso      1.000     O          -0.583474           
         O15       1.0000    0.27830   0.21310   0.29420   Biso      1.000     O          -0.596247           
         O16       1.0000    0.29730   0.43430   0.89730   Biso      1.000     O          -0.550864           
         Zn1       1.0000    0.23624   0.76376   0.75000   Biso      1.000     Zn          0.75214   
         Zn2       1.0000    0.76376   0.23624   0.25000   Biso      1.000     Zn          0.752141  
         Zn3       1.0000    0.33625   0.20223   0.45948   Biso      1.000     Zn          0.781873  
         Zn4       1.0000    0.79777   0.66375   0.04052   Biso      1.000     Zn          0.781872  
         Zn5       1.0000    0.66375   0.79777   0.54052   Biso      1.000     Zn          0.781872  
         Zn6       1.0000    0.20223   0.33625   0.95948   Biso      1.000     Zn          0.781873 