
##########################################################################
#               Crystallographic Information Format file
#               Produced by PyCifRW module
#
#  This is a CIF file.  CIF has been adopted by the International
#  Union of Crystallography as the standard for data archiving and
#  transmission.
#
#  For information on this file format, follow the CIF links at
#  http://www.iucr.org
##########################################################################

data_image0

_cell_length_a                          13.2909
_cell_length_b                          13.2909
_cell_length_c                          14.356
_cell_angle_alpha                       90
_cell_angle_beta                        90
_cell_angle_gamma                       90
_symmetry_space_group_name_H-M          'P 1'
_symmetry_int_tables_number             1
loop_
  _symmetry_equiv_pos_as_xyz
         'x, y, z' 
loop_
  _atom_site_label
  _atom_site_occupancy
  _atom_site_fract_x
  _atom_site_fract_y
  _atom_site_fract_z
  _atom_site_thermal_displace_type
  _atom_site_B_iso_or_equiv
  _atom_site_type_symbol
  _atom_site_charge
         C1        1.0000    0.00000   0.29290   0.50000   Biso      1.000     C          -0.02827  
         C2        1.0000    0.97550   0.77138   0.07160   Biso      1.000     C          -0.073985           
         C3        1.0000    0.77138   0.97550   0.17840   Biso      1.000     C          -0.074018           
         C4        1.0000    0.98920   0.79207   0.42550   Biso      1.000     C          -0.074982           
         C5        1.0000    0.97550   0.22862   0.42840   Biso      1.000     C          -0.074046           
         C6        1.0000    0.02330   0.56352   0.57953   Biso      1.000     C          -0.15046  
         C7        1.0000    0.02190   0.45830   0.57961   Biso      1.000     C          -0.151115           
         C8        1.0000    0.97810   0.45830   0.42039   Biso      1.000     C          -0.151112           
         C9        1.0000    0.02450   0.22862   0.57160   Biso      1.000     C          -0.074027           
         C10       1.0000    0.97670   0.56352   0.42047   Biso      1.000     C          -0.150459           
         C11       1.0000    0.79207   0.98920   0.82450   Biso      1.000     C          -0.074977           
         C12       1.0000    0.01080   0.79207   0.57450   Biso      1.000     C          -0.074966           
         C13       1.0000    0.56352   0.02330   0.67047   Biso      1.000     C          -0.15044  
         C14       1.0000    0.45830   0.02190   0.67039   Biso      1.000     C          -0.151095           
         C15       1.0000    0.02450   0.77138   0.92840   Biso      1.000     C          -0.073969           
         C16       1.0000    0.22862   0.02450   0.67840   Biso      1.000     C          -0.074003           
         C17       1.0000    0.00000   0.40390   0.50000   Biso      1.000     C          0.088823  
         C18       1.0000    0.02190   0.54170   0.92039   Biso      1.000     C          -0.151077           
         C19       1.0000    0.20793   0.01080   0.32450   Biso      1.000     C          -0.074909           
         C20       1.0000    0.43648   0.97670   0.17047   Biso      1.000     C          -0.150441           
         C21       1.0000    0.02330   0.43648   0.92047   Biso      1.000     C          -0.150422           
         C22       1.0000    0.54170   0.97810   0.17039   Biso      1.000     C          -0.151097           
         C23       1.0000    0.97810   0.54170   0.07961   Biso      1.000     C          -0.151074           
         C24       1.0000    0.97670   0.43648   0.07953   Biso      1.000     C          -0.150422           
         C25       1.0000    0.98920   0.20793   0.07450   Biso      1.000     C          -0.074911           
         C26       1.0000    0.79207   0.01080   0.67550   Biso      1.000     C          -0.074931           
         C27       1.0000    0.00000   0.59610   0.00000   Biso      1.000     C          0.088815  
         C28       1.0000    0.00000   0.27240   0.00000   Biso      1.000     C          -0.024627           
         C29       1.0000    0.29290   0.00000   0.75000   Biso      1.000     C          -0.028256           
         C30       1.0000    0.27240   0.00000   0.25000   Biso      1.000     C          -0.024637           
         C31       1.0000    0.54170   0.02190   0.32961   Biso      1.000     C          -0.15109  
         C32       1.0000    0.40390   0.00000   0.75000   Biso      1.000     C          0.088823  
         C33       1.0000    0.00000   0.70710   0.00000   Biso      1.000     C          -0.028231           
         C34       1.0000    0.56352   0.97670   0.82953   Biso      1.000     C          -0.150448           
         C35       1.0000    0.61650   0.00000   0.75000   Biso      1.000     C          0.091409  
         C36       1.0000    0.00000   0.38350   0.00000   Biso      1.000     C          0.091403  
         C37       1.0000    0.45830   0.97810   0.82961   Biso      1.000     C          -0.151102           
         C38       1.0000    0.72760   0.00000   0.75000   Biso      1.000     C          -0.024641           
         C39       1.0000    0.22862   0.97550   0.82160   Biso      1.000     C          -0.074038           
         C40       1.0000    0.70710   0.00000   0.25000   Biso      1.000     C          -0.028244           
         C41       1.0000    0.00000   0.72760   0.50000   Biso      1.000     C          -0.024653           
         C42       1.0000    0.20793   0.98920   0.17550   Biso      1.000     C          -0.074948           
         C43       1.0000    0.59610   0.00000   0.25000   Biso      1.000     C          0.088815  
         C44       1.0000    0.38350   0.00000   0.25000   Biso      1.000     C          0.091399  
         C45       1.0000    0.00000   0.61650   0.50000   Biso      1.000     C          0.09141   
         C46       1.0000    0.01080   0.20793   0.92550   Biso      1.000     C          -0.074896           
         C47       1.0000    0.43648   0.02330   0.32953   Biso      1.000     C          -0.15043  
         C48       1.0000    0.77138   0.02450   0.32160   Biso      1.000     C          -0.073975           
         Co1       1.0000    0.98912   0.01088   0.37500   Biso      1.000     Co          0.582205  
         Co2       1.0000    0.98912   0.98912   0.12500   Biso      1.000     Co          0.582453  
         Co3       1.0000    0.01088   0.98912   0.87500   Biso      1.000     Co          0.582366  
         Co4       1.0000    0.01088   0.01088   0.62500   Biso      1.000     Co          0.582124  
         H1        1.0000    0.01940   0.77140   0.63590   Biso      1.000     H          0.11515   
         H2        1.0000    0.03610   0.57590   0.86540   Biso      1.000     H          0.110721  
         H3        1.0000    0.95980   0.59800   0.36630   Biso      1.000     H          0.112135  
         H4        1.0000    0.96390   0.42410   0.36540   Biso      1.000     H          0.110697  
         H5        1.0000    0.04020   0.40200   0.86630   Biso      1.000     H          0.112159  
         H6        1.0000    0.95510   0.24920   0.36940   Biso      1.000     H          0.11361   
         H7        1.0000    0.98060   0.22860   0.13590   Biso      1.000     H          0.115184  
         H8        1.0000    0.04490   0.75080   0.86940   Biso      1.000     H          0.113655  
         H9        1.0000    0.24920   0.04490   0.61940   Biso      1.000     H          0.113629  
         H10       1.0000    0.24920   0.95510   0.88060   Biso      1.000     H          0.113617  
         H11       1.0000    0.95510   0.75080   0.13060   Biso      1.000     H          0.11365   
         H12       1.0000    0.77140   0.01940   0.61410   Biso      1.000     H          0.115164  
         H13       1.0000    0.01940   0.22860   0.86410   Biso      1.000     H          0.11519   
         H14       1.0000    0.98060   0.77140   0.36410   Biso      1.000     H          0.115145  
         H15       1.0000    0.04020   0.59800   0.63370   Biso      1.000     H          0.112136  
         H16       1.0000    0.03610   0.42410   0.63460   Biso      1.000     H          0.110698  
         H17       1.0000    0.04490   0.24920   0.63060   Biso      1.000     H          0.113614  
         H18       1.0000    0.42410   0.96390   0.88460   Biso      1.000     H          0.110704  
         H19       1.0000    0.75080   0.04490   0.38060   Biso      1.000     H          0.113647  
         H20       1.0000    0.96390   0.57590   0.13460   Biso      1.000     H          0.11072   
         H21       1.0000    0.77140   0.98060   0.88590   Biso      1.000     H          0.115152  
         H22       1.0000    0.40200   0.04020   0.38370   Biso      1.000     H          0.112152  
         H23       1.0000    0.59800   0.04020   0.61630   Biso      1.000     H          0.112148  
         H24       1.0000    0.42410   0.03610   0.61540   Biso      1.000     H          0.11071   
         H25       1.0000    0.22860   0.98060   0.11410   Biso      1.000     H          0.115171  
         H26       1.0000    0.59800   0.95980   0.88370   Biso      1.000     H          0.112142  
         H27       1.0000    0.22860   0.01940   0.38590   Biso      1.000     H          0.115185  
         H28       1.0000    0.40200   0.95980   0.11630   Biso      1.000     H          0.112146  
         H29       1.0000    0.57590   0.96390   0.11540   Biso      1.000     H          0.110709  
         H30       1.0000    0.75080   0.95510   0.11940   Biso      1.000     H          0.113636  
         H31       1.0000    0.57590   0.03610   0.38460   Biso      1.000     H          0.110715  
         H32       1.0000    0.95980   0.40200   0.13370   Biso      1.000     H          0.112159  
         N1        1.0000    0.01515   0.86751   0.95494   Biso      1.000     N          -0.181031           
         N2        1.0000    0.86751   0.01515   0.29506   Biso      1.000     N          -0.18101  
         N3        1.0000    0.13249   0.98485   0.79506   Biso      1.000     N          -0.181068           
         N4        1.0000    0.88884   0.00718   0.70313   Biso      1.000     N          -0.174929           
         N5        1.0000    0.99282   0.88884   0.45313   Biso      1.000     N          -0.174969           
         N6        1.0000    0.98485   0.86751   0.04506   Biso      1.000     N          -0.18104  
         N7        1.0000    0.99282   0.11116   0.04687   Biso      1.000     N          -0.174981           
         N8        1.0000    0.01515   0.13249   0.54506   Biso      1.000     N          -0.181027           
         N9        1.0000    0.88884   0.99282   0.79687   Biso      1.000     N          -0.174971           
         N10       1.0000    0.13249   0.01515   0.70494   Biso      1.000     N          -0.180998           
         N11       1.0000    0.98485   0.13249   0.45494   Biso      1.000     N          -0.181029           
         N12       1.0000    0.00718   0.88884   0.54687   Biso      1.000     N          -0.174927           
         N13       1.0000    0.11116   0.00718   0.29687   Biso      1.000     N          -0.17493  
         N14       1.0000    0.86751   0.98485   0.20494   Biso      1.000     N          -0.181052           
         N15       1.0000    0.00718   0.11116   0.95313   Biso      1.000     N          -0.174937           
         N16       1.0000    0.11116   0.99282   0.20313   Biso      1.000     N          -0.174972 