
##########################################################################
#               Crystallographic Information Format file
#               Produced by PyCifRW module
#
#  This is a CIF file.  CIF has been adopted by the International
#  Union of Crystallography as the standard for data archiving and
#  transmission.
#
#  For information on this file format, follow the CIF links at
#  http://www.iucr.org
##########################################################################

data_image0

_cell_length_a                          10.997
_cell_length_b                          14.914
_cell_length_c                          14.368
_cell_angle_alpha                       90
_cell_angle_beta                        109.31
_cell_angle_gamma                       90
_symmetry_space_group_name_H-M          'P 1'
_symmetry_int_tables_number             1
loop_
  _symmetry_equiv_pos_as_xyz
         'x, y, z' 
loop_
  _atom_site_label
  _atom_site_occupancy
  _atom_site_fract_x
  _atom_site_fract_y
  _atom_site_fract_z
  _atom_site_thermal_displace_type
  _atom_site_B_iso_or_equiv
  _atom_site_type_symbol
  _atom_site_charge
         C1        1.0000    0.37830   0.73560   0.73040   Biso      1.000     C          -0.055906           
         C2        1.0000    0.56000   0.37770   0.63140   Biso      1.000     C          0.35944899999999996           
         C3        1.0000    0.62170   0.23560   0.76960   Biso      1.000     C          -0.055906           
         C4        1.0000    0.46500   0.33850   0.66430   Biso      1.000     C          -0.187694           
         C5        1.0000    0.44000   0.87770   0.86860   Biso      1.000     C          0.35944899999999996           
         C6        1.0000    0.01450   0.62000   0.03960   Biso      1.000     C          -0.167792           
         C7        1.0000    0.53500   0.66150   0.33570   Biso      1.000     C          -0.187694           
         C8        1.0000    0.37830   0.76440   0.23040   Biso      1.000     C          -0.055906           
         C9        1.0000    0.44000   0.62230   0.36860   Biso      1.000     C          0.35944899999999996           
         C10       1.0000    0.67310   0.63360   0.37120   Biso      1.000     C          0.642219  
         C11       1.0000    0.28540   0.72550   0.26260   Biso      1.000     C          -0.102113           
         C12       1.0000    0.97130   0.64760   0.84610   Biso      1.000     C          0.108877  
         C13       1.0000    0.50250   0.73110   0.26830   Biso      1.000     C          -0.085525           
         C14       1.0000    0.98550   0.12000   0.46040   Biso      1.000     C          -0.167792           
         C15       1.0000    0.31160   0.65560   0.32870   Biso      1.000     C          -0.191779           
         C16       1.0000    0.97910   0.56170   0.88300   Biso      1.000     C          -0.164661           
         C17       1.0000    0.01450   0.88000   0.53960   Biso      1.000     C          -0.167792           
         C18       1.0000    0.00140   0.70390   0.99690   Biso      1.000     C          0.117441  
         C19       1.0000    0.20220   0.61870   0.35630   Biso      1.000     C          0.637352  
         C20       1.0000    0.34470   0.84210   0.16140   Biso      1.000     C          0.58168   
         C21       1.0000    0.99660   0.54590   0.98030   Biso      1.000     C          0.115481  
         C22       1.0000    0.99660   0.95410   0.48030   Biso      1.000     C          0.115473  
         C23       1.0000    0.00140   0.79610   0.49690   Biso      1.000     C          0.117441  
         C24       1.0000    0.34470   0.65790   0.66140   Biso      1.000     C          0.58168   
         C25       1.0000    0.97910   0.93830   0.38300   Biso      1.000     C          -0.164653           
         C26       1.0000    0.20220   0.88130   0.85630   Biso      1.000     C          0.637352  
         C27       1.0000    0.32690   0.36640   0.62880   Biso      1.000     C          0.642219  
         C28       1.0000    0.97130   0.85240   0.34610   Biso      1.000     C          0.108876  
         C29       1.0000    0.98550   0.38000   0.96040   Biso      1.000     C          -0.167792           
         C30       1.0000    0.02870   0.35240   0.15390   Biso      1.000     C          0.108876  
         C31       1.0000    0.53500   0.83850   0.83570   Biso      1.000     C          -0.187694           
         C32       1.0000    0.02870   0.14760   0.65390   Biso      1.000     C          0.108877  
         C33       1.0000    0.67310   0.86640   0.87120   Biso      1.000     C          0.642219  
         C34       1.0000    0.02090   0.06170   0.61700   Biso      1.000     C          -0.164661           
         C35       1.0000    0.46500   0.16150   0.16430   Biso      1.000     C          -0.187694           
         C36       1.0000    0.28540   0.77450   0.76260   Biso      1.000     C          -0.102113           
         C37       1.0000    0.62170   0.26440   0.26960   Biso      1.000     C          -0.055906           
         C38       1.0000    0.56000   0.12230   0.13140   Biso      1.000     C          0.35944899999999996           
         C39       1.0000    0.32690   0.13360   0.12880   Biso      1.000     C          0.642219  
         C40       1.0000    0.71460   0.22550   0.23740   Biso      1.000     C          -0.102113           
         C41       1.0000    0.99860   0.20390   0.50310   Biso      1.000     C          0.117441  
         C42       1.0000    0.49750   0.23110   0.23170   Biso      1.000     C          -0.085525           
         C43       1.0000    0.71460   0.27450   0.73740   Biso      1.000     C          -0.102113           
         C44       1.0000    0.00340   0.04590   0.51970   Biso      1.000     C          0.115481  
         C45       1.0000    0.65530   0.15790   0.83860   Biso      1.000     C          0.58168   
         C46       1.0000    0.79780   0.38130   0.64370   Biso      1.000     C          0.637352  
         C47       1.0000    0.68840   0.34440   0.67130   Biso      1.000     C          -0.191779           
         C48       1.0000    0.79780   0.11870   0.14370   Biso      1.000     C          0.637352  
         C49       1.0000    0.65530   0.34210   0.33860   Biso      1.000     C          0.58168   
         C50       1.0000    0.00340   0.45410   0.01970   Biso      1.000     C          0.115473  
         C51       1.0000    0.99860   0.29610   0.00310   Biso      1.000     C          0.117441  
         C52       1.0000    0.49750   0.26890   0.73170   Biso      1.000     C          -0.085525           
         C53       1.0000    0.02090   0.43830   0.11700   Biso      1.000     C          -0.164653           
         C54       1.0000    0.50250   0.76890   0.76830   Biso      1.000     C          -0.085525           
         C55       1.0000    0.68840   0.15560   0.17130   Biso      1.000     C          -0.191779           
         C56       1.0000    0.31160   0.84440   0.82870   Biso      1.000     C          -0.191779           
         H1        1.0000    0.56660   0.74350   0.74770   Biso      1.000     H          0.12053900000000001           
         H2        1.0000    0.20160   0.75250   0.73860   Biso      1.000     H          0.108155  
         H3        1.0000    0.03520   0.88610   0.60750   Biso      1.000     H          0.130547  
         H4        1.0000    0.97230   0.51330   0.84070   Biso      1.000     H          0.126064  
         H5        1.0000    0.96050   0.65590   0.77970   Biso      1.000     H          0.10472000000000001           
         H6        1.0000    0.79840   0.25250   0.76140   Biso      1.000     H          0.108155  
         H7        1.0000    0.43340   0.24350   0.75230   Biso      1.000     H          0.12053900000000001           
         H8        1.0000    0.99110   0.25350   0.46240   Biso      1.000     H          0.100313  
         H9        1.0000    0.02770   0.01330   0.65930   Biso      1.000     H          0.126064  
         H10       1.0000    0.03950   0.15590   0.72030   Biso      1.000     H          0.10472000000000001           
         H11       1.0000    0.00890   0.75350   0.03760   Biso      1.000     H          0.100313  
         H12       1.0000    0.03520   0.61390   0.10750   Biso      1.000     H          0.130547  
         H13       1.0000    0.96480   0.11390   0.39250   Biso      1.000     H          0.130547  
         H14       1.0000    0.99110   0.24650   0.96240   Biso      1.000     H          0.100313  
         H15       1.0000    0.00890   0.74650   0.53760   Biso      1.000     H          0.100313  
         H16       1.0000    0.97230   0.98670   0.34070   Biso      1.000     H          0.126064  
         H17       1.0000    0.56660   0.75650   0.24770   Biso      1.000     H          0.12053900000000001           
         H18       1.0000    0.43340   0.25650   0.25230   Biso      1.000     H          0.12053900000000001           
         H19       1.0000    0.20160   0.74750   0.23860   Biso      1.000     H          0.10815599999999999           
         H20       1.0000    0.79840   0.24750   0.26140   Biso      1.000     H          0.108155  
         H21       1.0000    0.02770   0.48670   0.15930   Biso      1.000     H          0.126064  
         H22       1.0000    0.03950   0.34410   0.22030   Biso      1.000     H          0.10472000000000001           
         H23       1.0000    0.96480   0.38610   0.89250   Biso      1.000     H          0.130547  
         H24       1.0000    0.96050   0.84410   0.27970   Biso      1.000     H          0.10472000000000001           
         N1        1.0000    0.02120   0.21820   0.59730   Biso      1.000     N          -0.223646           
         N2        1.0000    0.97880   0.71820   0.90270   Biso      1.000     N          -0.223646           
         N3        1.0000    0.97880   0.78180   0.40270   Biso      1.000     N          -0.22364499999999998          
         N4        1.0000    0.02120   0.28180   0.09730   Biso      1.000     N          -0.223646           
         O1        1.0000    0.28780   0.06920   0.07180   Biso      1.000     O          -0.560044           
         O2        1.0000    0.78040   0.43400   0.57310   Biso      1.000     O          -0.551323           
         O3        1.0000    0.46740   0.94380   0.93110   Biso      1.000     O          -0.557074           
         O4        1.0000    0.76420   0.37390   0.36270   Biso      1.000     O          -0.601853           
         O5        1.0000    0.28780   0.43080   0.57180   Biso      1.000     O          -0.560044           
         O6        1.0000    0.09180   0.64190   0.30370   Biso      1.000     O          -0.586141           
         O7        1.0000    0.78040   0.06600   0.07310   Biso      1.000     O          -0.551323           
         O8        1.0000    0.25220   0.17910   0.15760   Biso      1.000     O          -0.56253  
         O9        1.0000    0.53260   0.05620   0.06890   Biso      1.000     O          -0.557074           
         O10       1.0000    0.56630   0.37220   0.36980   Biso      1.000     O          -0.605337           
         O11       1.0000    0.76420   0.12610   0.86270   Biso      1.000     O          -0.601853           
         O12       1.0000    0.43370   0.87220   0.13020   Biso      1.000     O          -0.605337           
         O13       1.0000    0.53260   0.44380   0.56890   Biso      1.000     O          -0.557074           
         O14       1.0000    0.71220   0.56920   0.42820   Biso      1.000     O          -0.5600430000000001           
         O15       1.0000    0.43370   0.62780   0.63020   Biso      1.000     O          -0.605337           
         O16       1.0000    0.09180   0.85810   0.80370   Biso      1.000     O          -0.586141           
         O17       1.0000    0.21960   0.93400   0.92690   Biso      1.000     O          -0.551323           
         O18       1.0000    0.23580   0.62610   0.63730   Biso      1.000     O          -0.601853           
         O19       1.0000    0.71220   0.93080   0.92820   Biso      1.000     O          -0.560044           
         O20       1.0000    0.25220   0.32090   0.65760   Biso      1.000     O          -0.56253  
         O21       1.0000    0.23580   0.87390   0.13730   Biso      1.000     O          -0.601853           
         O22       1.0000    0.21960   0.56600   0.42690   Biso      1.000     O          -0.551323           
         O23       1.0000    0.90820   0.14190   0.19630   Biso      1.000     O          -0.586141           
         O24       1.0000    0.46740   0.55620   0.43110   Biso      1.000     O          -0.557074           
         O25       1.0000    0.90820   0.35810   0.69630   Biso      1.000     O          -0.586141           
         O26       1.0000    0.56630   0.12780   0.86980   Biso      1.000     O          -0.605337           
         O27       1.0000    0.74780   0.82090   0.84240   Biso      1.000     O          -0.56253  
         O28       1.0000    0.74780   0.67910   0.34240   Biso      1.000     O          -0.56253  
         Zn1       1.0000    0.92763   0.65007   0.33899   Biso      1.000     Zn          0.951836  
         Zn2       1.0000    0.62034   0.47001   0.46634   Biso      1.000     Zn          0.9987450000000001  
         Zn3       1.0000    0.07237   0.34993   0.66101   Biso      1.000     Zn          0.951836  
         Zn4       1.0000    0.37966   0.97001   0.03366   Biso      1.000     Zn          0.9987450000000001  
         Zn5       1.0000    0.07237   0.15007   0.16101   Biso      1.000     Zn          0.951836  
         Zn6       1.0000    0.62034   0.02999   0.96634   Biso      1.000     Zn          0.9987450000000001  
         Zn7       1.0000    0.92763   0.84993   0.83899   Biso      1.000     Zn          0.951836  
         Zn8       1.0000    0.37966   0.52999   0.53366   Biso      1.000     Zn          0.9987450000000001 