
##########################################################################
#               Crystallographic Information Format file
#               Produced by PyCifRW module
#
#  This is a CIF file.  CIF has been adopted by the International
#  Union of Crystallography as the standard for data archiving and
#  transmission.
#
#  For information on this file format, follow the CIF links at
#  http://www.iucr.org
##########################################################################

data_image0

_cell_length_a                          15.2927
_cell_length_b                          15.2927
_cell_length_c                          12.301
_cell_angle_alpha                       90
_cell_angle_beta                        90
_cell_angle_gamma                       90
_symmetry_space_group_name_H-M          'P 1'
_symmetry_int_tables_number             1
loop_
  _symmetry_equiv_pos_as_xyz
         'x, y, z' 
loop_
  _atom_site_label
  _atom_site_occupancy
  _atom_site_fract_x
  _atom_site_fract_y
  _atom_site_fract_z
  _atom_site_thermal_displace_type
  _atom_site_B_iso_or_equiv
  _atom_site_type_symbol
  _atom_site_charge
         C1        1.0000    0.93160   0.54040   0.01780   Biso      1.000     C          -0.0113   
         C2        1.0000    0.08770   0.13980   0.70820   Biso      1.000     C          0.632721  
         C3        1.0000    0.58770   0.86020   0.04180   Biso      1.000     C          0.632721  
         C4        1.0000    0.54040   0.93160   0.98220   Biso      1.000     C          -0.0113   
         C5        1.0000    0.53670   0.93080   0.86920   Biso      1.000     C          -0.181356           
         C6        1.0000    0.50000   0.50000   0.78830   Biso      1.000     C          -0.106474           
         C7        1.0000    0.50000   0.50000   0.56100   Biso      1.000     C          0.086601  
         C8        1.0000    0.50000   0.00000   0.46170   Biso      1.000     C          -0.106474           
         C9        1.0000    0.00000   0.50000   0.18900   Biso      1.000     C          0.086601  
         C10       1.0000    0.08770   0.36020   0.54180   Biso      1.000     C          0.632721  
         C11       1.0000    0.04040   0.43160   0.48220   Biso      1.000     C          -0.0113   
         C12       1.0000    0.03670   0.43080   0.36920   Biso      1.000     C          -0.181356           
         C13       1.0000    0.53670   0.56920   0.38080   Biso      1.000     C          -0.181356           
         C14       1.0000    0.50000   0.50000   0.43900   Biso      1.000     C          0.0866    
         C15       1.0000    0.00000   0.50000   0.53830   Biso      1.000     C          -0.106474           
         C16       1.0000    0.00000   0.50000   0.96170   Biso      1.000     C          -0.106474           
         C17       1.0000    0.95960   0.56840   0.48220   Biso      1.000     C          -0.0113   
         C18       1.0000    0.04040   0.06840   0.76780   Biso      1.000     C          -0.0113   
         C19       1.0000    0.93080   0.53670   0.13080   Biso      1.000     C          -0.181356           
         C20       1.0000    0.06920   0.46330   0.13080   Biso      1.000     C          -0.181356           
         C21       1.0000    0.63980   0.91230   0.45820   Biso      1.000     C          0.632721  
         C22       1.0000    0.56840   0.95960   0.51780   Biso      1.000     C          -0.0113   
         C23       1.0000    0.56920   0.96330   0.63080   Biso      1.000     C          -0.181355           
         C24       1.0000    0.06840   0.45960   0.01780   Biso      1.000     C          -0.0113   
         C25       1.0000    0.13980   0.41230   0.95820   Biso      1.000     C          0.632721  
         C26       1.0000    0.03670   0.06920   0.88080   Biso      1.000     C          -0.181355           
         C27       1.0000    0.50000   0.00000   0.81100   Biso      1.000     C          0.0866    
         C28       1.0000    0.36020   0.08770   0.45820   Biso      1.000     C          0.632721  
         C29       1.0000    0.43160   0.04040   0.51780   Biso      1.000     C          -0.0113   
         C30       1.0000    0.43080   0.03670   0.63080   Biso      1.000     C          -0.181356           
         C31       1.0000    0.00000   0.50000   0.31100   Biso      1.000     C          0.0866    
         C32       1.0000    0.50000   0.00000   0.68900   Biso      1.000     C          0.0866    
         C33       1.0000    0.86020   0.58770   0.95820   Biso      1.000     C          0.632721  
         C34       1.0000    0.50000   0.00000   0.03830   Biso      1.000     C          -0.106474           
         C35       1.0000    0.96330   0.56920   0.36920   Biso      1.000     C          -0.181356           
         C36       1.0000    0.91230   0.63980   0.54180   Biso      1.000     C          0.632721  
         C37       1.0000    0.58770   0.63980   0.20820   Biso      1.000     C          0.632721  
         C38       1.0000    0.56920   0.53670   0.61920   Biso      1.000     C          -0.181356           
         C39       1.0000    0.56840   0.54040   0.73220   Biso      1.000     C          -0.0113   
         C40       1.0000    0.63980   0.58770   0.79180   Biso      1.000     C          0.632721  
         C41       1.0000    0.91230   0.86020   0.70820   Biso      1.000     C          0.632721  
         C42       1.0000    0.95960   0.93160   0.76780   Biso      1.000     C          -0.0113   
         C43       1.0000    0.96330   0.93080   0.88080   Biso      1.000     C          -0.181355           
         C44       1.0000    0.06920   0.03670   0.11920   Biso      1.000     C          -0.181356           
         C45       1.0000    0.06840   0.04040   0.23220   Biso      1.000     C          -0.0113   
         C46       1.0000    0.13980   0.08770   0.29180   Biso      1.000     C          0.632721  
         C47       1.0000    0.00000   0.00000   0.06100   Biso      1.000     C          0.0866    
         C48       1.0000    0.93080   0.96330   0.11920   Biso      1.000     C          -0.181356           
         C49       1.0000    0.54040   0.56840   0.26780   Biso      1.000     C          -0.0113   
         C50       1.0000    0.86020   0.91230   0.29180   Biso      1.000     C          0.632721  
         C51       1.0000    0.41230   0.36020   0.20820   Biso      1.000     C          0.632721  
         C52       1.0000    0.45960   0.43160   0.26780   Biso      1.000     C          -0.0113   
         C53       1.0000    0.93160   0.95960   0.23220   Biso      1.000     C          -0.0113   
         C54       1.0000    0.43080   0.46330   0.61920   Biso      1.000     C          -0.181356           
         C55       1.0000    0.43160   0.45960   0.73220   Biso      1.000     C          -0.0113   
         C56       1.0000    0.36020   0.41230   0.79180   Biso      1.000     C          0.632721  
         C57       1.0000    0.00000   0.00000   0.71170   Biso      1.000     C          -0.106474           
         C58       1.0000    0.50000   0.50000   0.21170   Biso      1.000     C          -0.106474           
         C59       1.0000    0.00000   0.00000   0.93900   Biso      1.000     C          0.0866    
         C60       1.0000    0.41230   0.13980   0.04180   Biso      1.000     C          0.632721  
         C61       1.0000    0.45960   0.06840   0.98220   Biso      1.000     C          -0.0113   
         C62       1.0000    0.46330   0.43080   0.38080   Biso      1.000     C          -0.181356           
         C63       1.0000    0.00000   0.00000   0.28830   Biso      1.000     C          -0.106474           
         C64       1.0000    0.46330   0.06920   0.86920   Biso      1.000     C          -0.181356           
         H1        1.0000    0.44080   0.38300   0.41840   Biso      1.000     H          0.099589  
         H2        1.0000    0.50000   0.50000   0.86390   Biso      1.000     H          0.138762  
         H3        1.0000    0.21161   0.20268   0.09097   Biso      1.000     H          0.446167  
         H4        1.0000    0.55920   0.61700   0.41840   Biso      1.000     H          0.099589  
         H5        1.0000    0.94080   0.88300   0.91840   Biso      1.000     H          0.099589  
         H6        1.0000    0.28839   0.29732   0.59097   Biso      1.000     H          0.446167  
         H7        1.0000    0.71161   0.70268   0.59097   Biso      1.000     H          0.446167  
         H8        1.0000    0.00000   0.50000   0.61390   Biso      1.000     H          0.138762  
         H9        1.0000    0.79732   0.71161   0.34097   Biso      1.000     H          0.446167  
         H10       1.0000    0.00000   0.00000   0.36390   Biso      1.000     H          0.138762  
         H11       1.0000    0.05920   0.11700   0.91840   Biso      1.000     H          0.099589  
         H12       1.0000    0.78839   0.79732   0.09097   Biso      1.000     H          0.446167  
         H13       1.0000    0.11700   0.44080   0.16840   Biso      1.000     H          0.099589  
         H14       1.0000    0.61700   0.55920   0.58160   Biso      1.000     H          0.099589  
         H15       1.0000    0.50000   0.00000   0.11390   Biso      1.000     H          0.138762  
         H16       1.0000    0.29732   0.28839   0.40903   Biso      1.000     H          0.446167  
         H17       1.0000    0.11700   0.05920   0.08160   Biso      1.000     H          0.099589  
         H18       1.0000    0.79732   0.78839   0.90903   Biso      1.000     H          0.446167  
         H19       1.0000    0.88300   0.94080   0.08160   Biso      1.000     H          0.099589  
         H20       1.0000    0.20268   0.21161   0.90903   Biso      1.000     H          0.446167  
         H21       1.0000    0.38300   0.44080   0.58160   Biso      1.000     H          0.099589  
         H22       1.0000    0.29732   0.21161   0.84097   Biso      1.000     H          0.446167  
         H23       1.0000    0.44080   0.11700   0.83160   Biso      1.000     H          0.099589  
         H24       1.0000    0.00000   0.00000   0.63610   Biso      1.000     H          0.138762  
         H25       1.0000    0.71161   0.79732   0.65903   Biso      1.000     H          0.446167  
         H26       1.0000    0.94080   0.61700   0.33160   Biso      1.000     H          0.099589  
         H27       1.0000    0.50000   0.50000   0.13610   Biso      1.000     H          0.138762  
         H28       1.0000    0.70268   0.71161   0.40903   Biso      1.000     H          0.446167  
         H29       1.0000    0.05920   0.38300   0.33160   Biso      1.000     H          0.099589  
         H30       1.0000    0.78839   0.70268   0.15903   Biso      1.000     H          0.446167  
         H31       1.0000    0.55920   0.88300   0.83160   Biso      1.000     H          0.099589  
         H32       1.0000    0.00000   0.50000   0.88610   Biso      1.000     H          0.138762  
         H33       1.0000    0.28839   0.20268   0.65903   Biso      1.000     H          0.446167  
         H34       1.0000    0.88300   0.55920   0.16840   Biso      1.000     H          0.099589  
         H35       1.0000    0.70268   0.78839   0.84097   Biso      1.000     H          0.446167  
         H36       1.0000    0.50000   0.00000   0.38610   Biso      1.000     H          0.138762  
         H37       1.0000    0.61700   0.94080   0.66840   Biso      1.000     H          0.099589  
         H38       1.0000    0.20268   0.28839   0.34097   Biso      1.000     H          0.446167  
         H39       1.0000    0.38300   0.05920   0.66840   Biso      1.000     H          0.099589  
         H40       1.0000    0.21161   0.29732   0.15903   Biso      1.000     H          0.446167  
         Mg1       1.0000    0.18480   0.18480   0.50000   Biso      1.000     Mg          1.3748280000000002  
         Mg2       1.0000    0.81520   0.68480   0.75000   Biso      1.000     Mg          1.3748280000000002  
         Mg3       1.0000    0.68480   0.81520   0.25000   Biso      1.000     Mg          1.3748280000000002  
         Mg4       1.0000    0.31520   0.31520   0.00000   Biso      1.000     Mg          1.3748280000000002  
         Mg5       1.0000    0.68480   0.68480   0.00000   Biso      1.000     Mg          1.3748280000000002  
         Mg6       1.0000    0.18480   0.31520   0.75000   Biso      1.000     Mg          1.3748280000000002  
         Mg7       1.0000    0.31520   0.18480   0.25000   Biso      1.000     Mg          1.3748280000000002  
         Mg8       1.0000    0.81520   0.81520   0.50000   Biso      1.000     Mg          1.3748280000000002  
         O1        1.0000    0.25000   0.25540   0.37500   Biso      1.000     O          -0.8624139999999999           
         O2        1.0000    0.75000   0.75540   0.87500   Biso      1.000     O          -0.8624139999999999           
         O3        1.0000    0.24460   0.25000   0.12500   Biso      1.000     O          -0.8624139999999999           
         O4        1.0000    0.25540   0.25000   0.62500   Biso      1.000     O          -0.8624139999999999           
         O5        1.0000    0.75540   0.75000   0.12500   Biso      1.000     O          -0.8624139999999999           
         O6        1.0000    0.74460   0.75000   0.62500   Biso      1.000     O          -0.8624139999999999           
         O7        1.0000    0.71117   0.90306   0.50440   Biso      1.000     O          -0.668497           
         O8        1.0000    0.88450   0.87970   0.61460   Biso      1.000     O          -0.632976           
         O9        1.0000    0.62030   0.61550   0.88540   Biso      1.000     O          -0.632976           
         O10       1.0000    0.71117   0.59694   0.74560   Biso      1.000     O          -0.668497           
         O11       1.0000    0.12030   0.11550   0.38540   Biso      1.000     O          -0.632976           
         O12       1.0000    0.21117   0.09694   0.24560   Biso      1.000     O          -0.668497           
         O13       1.0000    0.87970   0.88450   0.38540   Biso      1.000     O          -0.632976           
         O14       1.0000    0.78883   0.90306   0.24560   Biso      1.000     O          -0.668497           
         O15       1.0000    0.37970   0.38450   0.88540   Biso      1.000     O          -0.632976           
         O16       1.0000    0.28883   0.40306   0.74560   Biso      1.000     O          -0.668497           
         O17       1.0000    0.38450   0.12030   0.13540   Biso      1.000     O          -0.632976           
         O18       1.0000    0.40306   0.21117   0.99560   Biso      1.000     O          -0.668497           
         O19       1.0000    0.88450   0.62030   0.63540   Biso      1.000     O          -0.632976           
         O20       1.0000    0.90306   0.71117   0.49560   Biso      1.000     O          -0.668497           
         O21       1.0000    0.11550   0.37970   0.63540   Biso      1.000     O          -0.632976           
         O22       1.0000    0.09694   0.28883   0.49560   Biso      1.000     O          -0.668497           
         O23       1.0000    0.90306   0.78883   0.75440   Biso      1.000     O          -0.668497           
         O24       1.0000    0.61550   0.87970   0.13540   Biso      1.000     O          -0.632976           
         O25       1.0000    0.87970   0.61550   0.86460   Biso      1.000     O          -0.632976           
         O26       1.0000    0.78883   0.59694   0.00440   Biso      1.000     O          -0.668497           
         O27       1.0000    0.37970   0.11550   0.36460   Biso      1.000     O          -0.632976           
         O28       1.0000    0.28883   0.09694   0.50440   Biso      1.000     O          -0.668497           
         O29       1.0000    0.62030   0.88450   0.36460   Biso      1.000     O          -0.632976           
         O30       1.0000    0.25000   0.24460   0.87500   Biso      1.000     O          -0.8624139999999999           
         O31       1.0000    0.12030   0.38450   0.86460   Biso      1.000     O          -0.632976           
         O32       1.0000    0.21117   0.40306   0.00440   Biso      1.000     O          -0.668497           
         O33       1.0000    0.11550   0.12030   0.61460   Biso      1.000     O          -0.632976           
         O34       1.0000    0.09694   0.21117   0.75440   Biso      1.000     O          -0.668497           
         O35       1.0000    0.61550   0.62030   0.11460   Biso      1.000     O          -0.632977           
         O36       1.0000    0.59694   0.71117   0.25440   Biso      1.000     O          -0.668497           
         O37       1.0000    0.38450   0.37970   0.11460   Biso      1.000     O          -0.632977           
         O38       1.0000    0.40306   0.28883   0.25440   Biso      1.000     O          -0.668497           
         O39       1.0000    0.59694   0.78883   0.99560   Biso      1.000     O          -0.668497           
         O40       1.0000    0.75000   0.74460   0.37500   Biso      1.000     O          -0.8624139999999999 