
##########################################################################
#               Crystallographic Information Format file
#               Produced by PyCifRW module
#
#  This is a CIF file.  CIF has been adopted by the International
#  Union of Crystallography as the standard for data archiving and
#  transmission.
#
#  For information on this file format, follow the CIF links at
#  http://www.iucr.org
##########################################################################

data_image0

_cell_length_a                          4.7096
_cell_length_b                          11.0947
_cell_length_c                          20.0417
_cell_angle_alpha                       90
_cell_angle_beta                        90
_cell_angle_gamma                       96.8435
_symmetry_space_group_name_H-M          'P 1'
_symmetry_int_tables_number             1
loop_
  _symmetry_equiv_pos_as_xyz
         'x, y, z' 
loop_
  _atom_site_label
  _atom_site_occupancy
  _atom_site_fract_x
  _atom_site_fract_y
  _atom_site_fract_z
  _atom_site_thermal_displace_type
  _atom_site_B_iso_or_equiv
  _atom_site_type_symbol
  _atom_site_charge
         C1        1.0000    0.69100   0.07700   0.31100   Biso      1.000     C          0.086858  
         C2        1.0000    0.04000   0.78600   0.19100   Biso      1.000     C          0.088352  
         C3        1.0000    0.94600   0.72700   0.25000   Biso      1.000     C          0.041957  
         C4        1.0000    0.34700   0.06900   0.96800   Biso      1.000     C          0.053759  
         C5        1.0000    0.56000   0.90500   0.96900   Biso      1.000     C          0.097957  
         C6        1.0000    0.75800   0.59800   0.68800   Biso      1.000     C          0.593025  
         C7        1.0000    0.99900   0.72200   0.82200   Biso      1.000     C          0.54119   
         C8        1.0000    0.30900   0.92300   0.68900   Biso      1.000     C          0.086858  
         C9        1.0000    0.21000   0.86800   0.62900   Biso      1.000     C          0.058628999999999994          
         C10       1.0000    0.96000   0.71400   0.69100   Biso      1.000     C          0.088351  
         C11       1.0000    0.05400   0.77300   0.75000   Biso      1.000     C          0.041956  
         C12       1.0000    0.00100   0.77800   0.32200   Biso      1.000     C          0.541191  
         C13       1.0000    0.24200   0.90200   0.18800   Biso      1.000     C          0.593024  
         C14       1.0000    0.44000   0.59500   0.46900   Biso      1.000     C          0.097957  
         C15       1.0000    0.65300   0.43100   0.46800   Biso      1.000     C          0.053759  
         C16       1.0000    0.94600   0.22700   0.25000   Biso      1.000     C          0.041956  
         C17       1.0000    0.04000   0.28600   0.30900   Biso      1.000     C          0.088351  
         C18       1.0000    0.79000   0.13200   0.37100   Biso      1.000     C          0.058629999999999995          
         C19       1.0000    0.00100   0.27800   0.17800   Biso      1.000     C          0.541191  
         C20       1.0000    0.24200   0.40200   0.31200   Biso      1.000     C          0.593025  
         C21       1.0000    0.44000   0.09500   0.03100   Biso      1.000     C          0.097972  
         C22       1.0000    0.65300   0.93100   0.03200   Biso      1.000     C          0.053777  
         C23       1.0000    0.05400   0.27300   0.75000   Biso      1.000     C          0.041957  
         C24       1.0000    0.96000   0.21400   0.80900   Biso      1.000     C          0.088351  
         C25       1.0000    0.21000   0.36800   0.87100   Biso      1.000     C          0.058629999999999995          
         C26       1.0000    0.30900   0.42300   0.81100   Biso      1.000     C          0.08685599999999999           
         C27       1.0000    0.99900   0.22200   0.67800   Biso      1.000     C          0.541191  
         C28       1.0000    0.75800   0.09800   0.81200   Biso      1.000     C          0.593025  
         C29       1.0000    0.56000   0.40500   0.53100   Biso      1.000     C          0.097972  
         C30       1.0000    0.34700   0.56900   0.53200   Biso      1.000     C          0.053778  
         C31       1.0000    0.79000   0.63200   0.12900   Biso      1.000     C          0.058629999999999995          
         C32       1.0000    0.69100   0.57700   0.18900   Biso      1.000     C          0.086857  
         Cu1       1.0000    0.30400   0.94210   0.83950   Biso      1.000     Cu          0.751744  
         Cu2       1.0000    0.69600   0.55790   0.33950   Biso      1.000     Cu          0.751732  
         Cu3       1.0000    0.69600   0.05790   0.16050   Biso      1.000     Cu          0.75173   
         Cu4       1.0000    0.30400   0.44210   0.66050   Biso      1.000     Cu          0.751732  
         H1        1.0000    0.62230   0.32690   0.54599   Biso      1.000     H          0.114798  
         H2        1.0000    0.26545   0.91284   0.59284   Biso      1.000     H          0.125475  
         H3        1.0000    0.43823   0.00444   0.69291   Biso      1.000     H          0.112507  
         H4        1.0000    0.62230   0.82690   0.95401   Biso      1.000     H          0.114799  
         H5        1.0000    0.22044   0.61468   0.55866   Biso      1.000     H          0.093312  
         H6        1.0000    0.73455   0.58716   0.09284   Biso      1.000     H          0.125475  
         H7        1.0000    0.56177   0.49556   0.19291   Biso      1.000     H          0.112507  
         H8        1.0000    0.22044   0.11468   0.94134   Biso      1.000     H          0.093313  
         H9        1.0000    0.77956   0.38532   0.44134   Biso      1.000     H          0.093313  
         H10       1.0000    0.73455   0.08716   0.40716   Biso      1.000     H          0.125474  
         H11       1.0000    0.56177   0.99556   0.30709   Biso      1.000     H          0.112507  
         H12       1.0000    0.37770   0.17310   0.04599   Biso      1.000     H          0.114799  
         H13       1.0000    0.77956   0.88532   0.05866   Biso      1.000     H          0.093312  
         H14       1.0000    0.26545   0.41284   0.90716   Biso      1.000     H          0.125474  
         H15       1.0000    0.43823   0.50444   0.80709   Biso      1.000     H          0.112507  
         H16       1.0000    0.37770   0.67310   0.45401   Biso      1.000     H          0.114799  
         N1        1.0000    0.41100   0.47300   0.56000   Biso      1.000     N          -0.156198           
         N2        1.0000    0.04800   0.26000   0.86900   Biso      1.000     N          -0.235855           
         N3        1.0000    0.23700   0.37900   0.74800   Biso      1.000     N          -0.21610900000000002          
         N4        1.0000    0.58900   0.02700   0.06000   Biso      1.000     N          -0.156198           
         N5        1.0000    0.95200   0.24000   0.36900   Biso      1.000     N          -0.235855           
         N6        1.0000    0.76300   0.12100   0.24800   Biso      1.000     N          -0.216108           
         N7        1.0000    0.95200   0.74000   0.13100   Biso      1.000     N          -0.23585599999999998          
         N8        1.0000    0.76300   0.62100   0.25200   Biso      1.000     N          -0.21610900000000002          
         N9        1.0000    0.41100   0.97300   0.94000   Biso      1.000     N          -0.156197           
         N10       1.0000    0.04800   0.76000   0.63100   Biso      1.000     N          -0.235855           
         N11       1.0000    0.23700   0.87900   0.75200   Biso      1.000     N          -0.216112           
         N12       1.0000    0.58900   0.52700   0.44000   Biso      1.000     N          -0.156194           
         O1        1.0000    0.86900   0.11900   0.67300   Biso      1.000     O          -0.516296           
         O2        1.0000    0.11300   0.27100   0.62700   Biso      1.000     O          -0.524767           
         O3        1.0000    0.13000   0.49000   0.33200   Biso      1.000     O          -0.598137           
         O4        1.0000    0.50700   0.40100   0.31100   Biso      1.000     O          -0.512211           
         O5        1.0000    0.13100   0.38100   0.17300   Biso      1.000     O          -0.516295           
         O6        1.0000    0.88700   0.22900   0.12700   Biso      1.000     O          -0.5247649999999999           
         O7        1.0000    0.13000   0.99000   0.16800   Biso      1.000     O          -0.5981350000000001           
         O8        1.0000    0.13100   0.88100   0.32700   Biso      1.000     O          -0.516296           
         O9        1.0000    0.88700   0.72900   0.37300   Biso      1.000     O          -0.524767           
         O10       1.0000    0.87000   0.51000   0.66800   Biso      1.000     O          -0.598137           
         O11       1.0000    0.49300   0.59900   0.68900   Biso      1.000     O          -0.51221  
         O12       1.0000    0.86900   0.61900   0.82700   Biso      1.000     O          -0.5162939999999999           
         O13       1.0000    0.11300   0.77100   0.87300   Biso      1.000     O          -0.5247689999999999           
         O14       1.0000    0.49300   0.09900   0.81100   Biso      1.000     O          -0.512212           
         O15       1.0000    0.50700   0.90100   0.18900   Biso      1.000     O          -0.51221  
         O16       1.0000    0.87000   0.01000   0.83200   Biso      1.000     O          -0.5981380000000001 