
##########################################################################
#               Crystallographic Information Format file
#               Produced by PyCifRW module
#
#  This is a CIF file.  CIF has been adopted by the International
#  Union of Crystallography as the standard for data archiving and
#  transmission.
#
#  For information on this file format, follow the CIF links at
#  http://www.iucr.org
##########################################################################

data_image0

_cell_length_a                          13.873
_cell_length_b                          13.873
_cell_length_c                          18.455
_cell_angle_alpha                       90
_cell_angle_beta                        90
_cell_angle_gamma                       120
_symmetry_space_group_name_H-M          'P 1'
_symmetry_int_tables_number             1
loop_
  _symmetry_equiv_pos_as_xyz
         'x, y, z' 
loop_
  _atom_site_label
  _atom_site_occupancy
  _atom_site_fract_x
  _atom_site_fract_y
  _atom_site_fract_z
  _atom_site_thermal_displace_type
  _atom_site_B_iso_or_equiv
  _atom_site_type_symbol
  _atom_site_charge
         C1        1.0000    0.57460   0.97120   0.03390   Biso      1.000     C          -0.109697           
         C2        1.0000    0.05460   0.52730   0.43280   Biso      1.000     C          -0.027224           
         C3        1.0000    0.39660   0.97120   0.46610   Biso      1.000     C          -0.109696           
         C4        1.0000    0.55860   0.44140   0.86240   Biso      1.000     C          0.61716   
         C5        1.0000    0.02880   0.42540   0.46610   Biso      1.000     C          -0.109697           
         C6        1.0000    0.52730   0.47270   0.93280   Biso      1.000     C          -0.027223           
         C7        1.0000    0.57460   0.60340   0.46610   Biso      1.000     C          -0.109695           
         C8        1.0000    0.55860   0.11720   0.86240   Biso      1.000     C          0.617158  
         C9        1.0000    0.02880   0.60340   0.03390   Biso      1.000     C          -0.109697           
         C10       1.0000    0.52730   0.05460   0.93280   Biso      1.000     C          -0.027224           
         C11       1.0000    0.88280   0.44140   0.86240   Biso      1.000     C          0.617158  
         C12       1.0000    0.39660   0.42540   0.03390   Biso      1.000     C          -0.109695           
         C13       1.0000    0.94540   0.47270   0.93280   Biso      1.000     C          -0.027224           
         C14       1.0000    0.97120   0.39660   0.53390   Biso      1.000     C          -0.109696           
         C15       1.0000    0.55860   0.44140   0.63760   Biso      1.000     C          0.61716   
         C16       1.0000    0.42540   0.02880   0.53390   Biso      1.000     C          -0.109696           
         C17       1.0000    0.42540   0.39660   0.96610   Biso      1.000     C          -0.109695           
         C18       1.0000    0.52730   0.47270   0.56720   Biso      1.000     C          -0.027223           
         C19       1.0000    0.11720   0.55860   0.36240   Biso      1.000     C          0.617158  
         C20       1.0000    0.47270   0.94540   0.43280   Biso      1.000     C          -0.027224           
         C21       1.0000    0.87550   0.75100   0.69800   Biso      1.000     C          0.161664  
         C22       1.0000    0.87550   0.12450   0.69800   Biso      1.000     C          0.161658  
         C23       1.0000    0.12450   0.87550   0.19800   Biso      1.000     C          0.161659  
         C24       1.0000    0.75100   0.87550   0.19800   Biso      1.000     C          0.16166   
         C25       1.0000    0.24900   0.12450   0.80200   Biso      1.000     C          0.16166   
         C26       1.0000    0.12450   0.24900   0.19800   Biso      1.000     C          0.16166   
         C27       1.0000    0.87550   0.75100   0.80200   Biso      1.000     C          0.16166   
         C28       1.0000    0.87550   0.12450   0.80200   Biso      1.000     C          0.161663  
         C29       1.0000    0.75100   0.87550   0.30200   Biso      1.000     C          0.161664  
         C30       1.0000    0.12450   0.24900   0.30200   Biso      1.000     C          0.161664  
         C31       1.0000    0.12450   0.87550   0.30200   Biso      1.000     C          0.161663  
         C32       1.0000    0.44140   0.55860   0.36240   Biso      1.000     C          0.61716   
         C33       1.0000    0.47270   0.52730   0.43280   Biso      1.000     C          -0.027223           
         C34       1.0000    0.44140   0.88280   0.36240   Biso      1.000     C          0.617158  
         C35       1.0000    0.60340   0.02880   0.96610   Biso      1.000     C          -0.109696           
         C36       1.0000    0.97120   0.57460   0.96610   Biso      1.000     C          -0.109697           
         C37       1.0000    0.60340   0.57460   0.53390   Biso      1.000     C          -0.109695           
         C38       1.0000    0.24900   0.12450   0.69800   Biso      1.000     C          0.161664  
         C39       1.0000    0.02880   0.60340   0.46610   Biso      1.000     C          -0.109697           
         C40       1.0000    0.05460   0.52730   0.06720   Biso      1.000     C          -0.027224           
         C41       1.0000    0.97120   0.39660   0.96610   Biso      1.000     C          -0.109697           
         C42       1.0000    0.88280   0.44140   0.63760   Biso      1.000     C          0.617158  
         C43       1.0000    0.60340   0.57460   0.96610   Biso      1.000     C          -0.109695           
         C44       1.0000    0.11720   0.55860   0.13760   Biso      1.000     C          0.617158  
         C45       1.0000    0.42540   0.39660   0.53390   Biso      1.000     C          -0.109695           
         C46       1.0000    0.47270   0.94540   0.06720   Biso      1.000     C          -0.027224           
         C47       1.0000    0.47270   0.52730   0.06720   Biso      1.000     C          -0.027223           
         C48       1.0000    0.97120   0.57460   0.53390   Biso      1.000     C          -0.109697           
         C49       1.0000    0.44140   0.55860   0.13760   Biso      1.000     C          0.61716   
         C50       1.0000    0.42540   0.02880   0.96610   Biso      1.000     C          -0.109697           
         C51       1.0000    0.60340   0.02880   0.53390   Biso      1.000     C          -0.109696           
         C52       1.0000    0.52730   0.05460   0.56720   Biso      1.000     C          -0.027224           
         C53       1.0000    0.44140   0.88280   0.13760   Biso      1.000     C          0.617158  
         C54       1.0000    0.02880   0.42540   0.03390   Biso      1.000     C          -0.109697           
         C55       1.0000    0.57460   0.97120   0.46610   Biso      1.000     C          -0.109697           
         C56       1.0000    0.39660   0.97120   0.03390   Biso      1.000     C          -0.109696           
         C57       1.0000    0.39660   0.42540   0.46610   Biso      1.000     C          -0.109695           
         C58       1.0000    0.94540   0.47270   0.56720   Biso      1.000     C          -0.027225           
         C59       1.0000    0.55860   0.11720   0.63760   Biso      1.000     C          0.617158  
         C60       1.0000    0.57460   0.60340   0.03390   Biso      1.000     C          -0.109695           
         H1        1.0000    0.67130   0.62230   0.94420   Biso      1.000     H          0.121444  
         H2        1.0000    0.13645   0.27290   0.34960   Biso      1.000     H          0.077943  
         H3        1.0000    0.27290   0.13645   0.65040   Biso      1.000     H          0.077943  
         H4        1.0000    0.13645   0.86355   0.15040   Biso      1.000     H          0.077943  
         H5        1.0000    0.72710   0.86355   0.34960   Biso      1.000     H          0.077943  
         H6        1.0000    0.62230   0.95100   0.44420   Biso      1.000     H          0.121443  
         H7        1.0000    0.86355   0.13645   0.84960   Biso      1.000     H          0.077943  
         H8        1.0000    0.72710   0.86355   0.15040   Biso      1.000     H          0.077943  
         H9        1.0000    0.04900   0.67130   0.44420   Biso      1.000     H          0.121443  
         H10       1.0000    0.86355   0.72710   0.84960   Biso      1.000     H          0.077943  
         H11       1.0000    0.86355   0.13645   0.65040   Biso      1.000     H          0.077943  
         H12       1.0000    0.13645   0.27290   0.15040   Biso      1.000     H          0.077943  
         H13       1.0000    0.27290   0.13645   0.84960   Biso      1.000     H          0.077943  
         H14       1.0000    0.32870   0.37770   0.44420   Biso      1.000     H          0.121444  
         H15       1.0000    0.67130   0.62230   0.55580   Biso      1.000     H          0.121444  
         H16       1.0000    0.95100   0.62230   0.94420   Biso      1.000     H          0.121443  
         H17       1.0000    0.37770   0.04900   0.94420   Biso      1.000     H          0.121443  
         H18       1.0000    0.32870   0.95100   0.05580   Biso      1.000     H          0.121443  
         H19       1.0000    0.37770   0.04900   0.55580   Biso      1.000     H          0.121443  
         H20       1.0000    0.04900   0.37770   0.05580   Biso      1.000     H          0.121443  
         H21       1.0000    0.95100   0.32870   0.55580   Biso      1.000     H          0.121443  
         H22       1.0000    0.32870   0.37770   0.05580   Biso      1.000     H          0.121444  
         H23       1.0000    0.62230   0.67130   0.05580   Biso      1.000     H          0.121444  
         H24       1.0000    0.86355   0.72710   0.65040   Biso      1.000     H          0.077943  
         H25       1.0000    0.62230   0.95100   0.05580   Biso      1.000     H          0.121443  
         H26       1.0000    0.13645   0.86355   0.34960   Biso      1.000     H          0.077943  
         H27       1.0000    0.04900   0.67130   0.05580   Biso      1.000     H          0.121443  
         H28       1.0000    0.67130   0.04900   0.55580   Biso      1.000     H          0.121443  
         H29       1.0000    0.62230   0.67130   0.44420   Biso      1.000     H          0.121444  
         H30       1.0000    0.95100   0.62230   0.55580   Biso      1.000     H          0.121443  
         H31       1.0000    0.04900   0.37770   0.44420   Biso      1.000     H          0.121443  
         H32       1.0000    0.32870   0.95100   0.44420   Biso      1.000     H          0.121443  
         H33       1.0000    0.37770   0.32870   0.55580   Biso      1.000     H          0.121444  
         H34       1.0000    0.37770   0.32870   0.94420   Biso      1.000     H          0.121444  
         H35       1.0000    0.95100   0.32870   0.94420   Biso      1.000     H          0.121443  
         H36       1.0000    0.67130   0.04900   0.94420   Biso      1.000     H          0.121443  
         In1       1.0000    0.00000   0.00000   0.63390   Biso      1.000     In          0.056553  
         In2       1.0000    0.00000   0.00000   0.13390   Biso      1.000     In          0.056546  
         In3       1.0000    0.50246   0.75123   0.25000   Biso      1.000     In          1.456725  
         In4       1.0000    0.00000   0.00000   0.36610   Biso      1.000     In          0.056555  
         In5       1.0000    0.24877   0.49754   0.25000   Biso      1.000     In          1.456726  
         In6       1.0000    0.00000   0.00000   0.86610   Biso      1.000     In          0.056548  
         In7       1.0000    0.24877   0.75123   0.25000   Biso      1.000     In          1.456631  
         In8       1.0000    0.75123   0.50246   0.75000   Biso      1.000     In          1.456726  
         In9       1.0000    0.75123   0.24877   0.75000   Biso      1.000     In          1.456631  
         In10      1.0000    0.49754   0.24877   0.75000   Biso      1.000     In          1.456725  
         N1        1.0000    0.14800   0.07400   0.71330   Biso      1.000     N          -0.120033           
         N2        1.0000    0.15830   0.31660   0.25000   Biso      1.000     N          -0.311631           
         N3        1.0000    0.68340   0.84170   0.25000   Biso      1.000     N          -0.311631           
         N4        1.0000    0.07400   0.92600   0.28670   Biso      1.000     N          -0.120034           
         N5        1.0000    0.15830   0.84170   0.25000   Biso      1.000     N          -0.311617           
         N6        1.0000    0.07400   0.14800   0.28670   Biso      1.000     N          -0.120033           
         N7        1.0000    0.84170   0.68340   0.75000   Biso      1.000     N          -0.311631           
         N8        1.0000    0.85200   0.92600   0.28670   Biso      1.000     N          -0.120033           
         N9        1.0000    0.92600   0.85200   0.71330   Biso      1.000     N          -0.120033           
         N10       1.0000    0.92600   0.07400   0.78670   Biso      1.000     N          -0.120034           
         N11       1.0000    0.84170   0.15830   0.75000   Biso      1.000     N          -0.311616           
         N12       1.0000    0.92600   0.85200   0.78670   Biso      1.000     N          -0.119991           
         N13       1.0000    0.31660   0.15830   0.75000   Biso      1.000     N          -0.311631           
         N14       1.0000    0.14800   0.07400   0.78670   Biso      1.000     N          -0.119991           
         N15       1.0000    0.07400   0.14800   0.21330   Biso      1.000     N          -0.119991           
         N16       1.0000    0.85200   0.92600   0.21330   Biso      1.000     N          -0.119991           
         N17       1.0000    0.92600   0.07400   0.71330   Biso      1.000     N          -0.119993           
         N18       1.0000    0.07400   0.92600   0.21330   Biso      1.000     N          -0.119992           
         O1        1.0000    0.13900   0.48790   0.16370   Biso      1.000     O          -0.573786           
         O2        1.0000    0.51210   0.65110   0.16370   Biso      1.000     O          -0.573783           
         O3        1.0000    0.65110   0.13900   0.66370   Biso      1.000     O          -0.573775           
         O4        1.0000    0.86100   0.51210   0.66370   Biso      1.000     O          -0.573786           
         O5        1.0000    0.65110   0.51210   0.83630   Biso      1.000     O          -0.573783           
         O6        1.0000    0.86100   0.34890   0.83630   Biso      1.000     O          -0.573775           
         O7        1.0000    0.48790   0.13900   0.83630   Biso      1.000     O          -0.573786           
         O8        1.0000    0.34890   0.86100   0.16370   Biso      1.000     O          -0.573775           
         O9        1.0000    0.13900   0.65110   0.33630   Biso      1.000     O          -0.573775           
         O10       1.0000    0.51210   0.86100   0.33630   Biso      1.000     O          -0.573786           
         O11       1.0000    0.48790   0.34890   0.66370   Biso      1.000     O          -0.573783           
         O12       1.0000    0.65110   0.51210   0.66370   Biso      1.000     O          -0.573783           
         O13       1.0000    0.51210   0.86100   0.16370   Biso      1.000     O          -0.573786           
         O14       1.0000    0.86100   0.34890   0.66370   Biso      1.000     O          -0.573775           
         O15       1.0000    0.34890   0.48790   0.16370   Biso      1.000     O          -0.573783           
         O16       1.0000    0.13900   0.65110   0.16370   Biso      1.000     O          -0.573775           
         O17       1.0000    0.51210   0.65110   0.33630   Biso      1.000     O          -0.573783           
         O18       1.0000    0.13900   0.48790   0.33630   Biso      1.000     O          -0.573786           
         O19       1.0000    0.34890   0.86100   0.33630   Biso      1.000     O          -0.573775           
         O20       1.0000    0.48790   0.34890   0.83630   Biso      1.000     O          -0.573783           
         O21       1.0000    0.86100   0.51210   0.83630   Biso      1.000     O          -0.573786           
         O22       1.0000    0.65110   0.13900   0.83630   Biso      1.000     O          -0.573775           
         O23       1.0000    0.66667   0.33333   0.75000   Biso      1.000     O          -1.061057           
         O24       1.0000    0.33333   0.66667   0.25000   Biso      1.000     O          -1.061057           
         O25       1.0000    0.48790   0.13900   0.66370   Biso      1.000     O          -0.573786           
         O26       1.0000    0.34890   0.48790   0.33630   Biso      1.000     O          -0.573783 