
##########################################################################
#               Crystallographic Information Format file
#               Produced by PyCifRW module
#
#  This is a CIF file.  CIF has been adopted by the International
#  Union of Crystallography as the standard for data archiving and
#  transmission.
#
#  For information on this file format, follow the CIF links at
#  http://www.iucr.org
##########################################################################

data_image0

_cell_length_a                          13.81
_cell_length_b                          13.81
_cell_length_c                          18.33
_cell_angle_alpha                       90
_cell_angle_beta                        90
_cell_angle_gamma                       120
_symmetry_space_group_name_H-M          'P 1'
_symmetry_int_tables_number             1
loop_
  _symmetry_equiv_pos_as_xyz
         'x, y, z' 
loop_
  _atom_site_label
  _atom_site_occupancy
  _atom_site_fract_x
  _atom_site_fract_y
  _atom_site_fract_z
  _atom_site_thermal_displace_type
  _atom_site_B_iso_or_equiv
  _atom_site_type_symbol
  _atom_site_charge
         C1        1.0000    0.05400   0.52700   0.06630   Biso      1.000     C          -0.021302           
         C2        1.0000    0.47300   0.52700   0.43370   Biso      1.000     C          -0.021301           
         C3        1.0000    0.12640   0.87360   0.30380   Biso      1.000     C          0.146467  
         C4        1.0000    0.59910   0.57310   0.96640   Biso      1.000     C          -0.105627           
         C5        1.0000    0.88580   0.44290   0.86220   Biso      1.000     C          0.627623  
         C6        1.0000    0.94600   0.47300   0.93370   Biso      1.000     C          -0.021316           
         C7        1.0000    0.40090   0.97400   0.46640   Biso      1.000     C          -0.105629           
         C8        1.0000    0.55710   0.11420   0.86220   Biso      1.000     C          0.627623  
         C9        1.0000    0.74720   0.87360   0.19620   Biso      1.000     C          0.146446  
         C10       1.0000    0.02600   0.42690   0.46640   Biso      1.000     C          -0.105635           
         C11       1.0000    0.52700   0.05400   0.93370   Biso      1.000     C          -0.021314           
         C12       1.0000    0.55710   0.44290   0.86220   Biso      1.000     C          0.627624  
         C13       1.0000    0.57310   0.59910   0.46640   Biso      1.000     C          -0.105628           
         C14       1.0000    0.02600   0.59910   0.03360   Biso      1.000     C          -0.105629           
         C15       1.0000    0.52700   0.47300   0.93370   Biso      1.000     C          -0.021314           
         C16       1.0000    0.59910   0.02600   0.96640   Biso      1.000     C          -0.105632           
         C17       1.0000    0.11420   0.55710   0.13780   Biso      1.000     C          0.627577  
         C18       1.0000    0.97400   0.57310   0.96640   Biso      1.000     C          -0.105625           
         C19       1.0000    0.40090   0.42690   0.03360   Biso      1.000     C          -0.105631           
         C20       1.0000    0.12640   0.87360   0.19620   Biso      1.000     C          0.146469  
         C21       1.0000    0.42690   0.40090   0.96640   Biso      1.000     C          -0.105622           
         C22       1.0000    0.87360   0.12640   0.69620   Biso      1.000     C          0.146554  
         C23       1.0000    0.97400   0.40090   0.53360   Biso      1.000     C          -0.105625           
         C24       1.0000    0.57310   0.97400   0.03360   Biso      1.000     C          -0.105627           
         C25       1.0000    0.25280   0.12640   0.69620   Biso      1.000     C          0.146551  
         C26       1.0000    0.42690   0.02600   0.53360   Biso      1.000     C          -0.105623           
         C27       1.0000    0.59910   0.57310   0.53360   Biso      1.000     C          -0.105623           
         C28       1.0000    0.12640   0.25280   0.19620   Biso      1.000     C          0.146492  
         C29       1.0000    0.44290   0.55710   0.36220   Biso      1.000     C          0.627582  
         C30       1.0000    0.42690   0.02600   0.96640   Biso      1.000     C          -0.10563  
         C31       1.0000    0.97400   0.40090   0.96640   Biso      1.000     C          -0.105631           
         C32       1.0000    0.59910   0.02600   0.53360   Biso      1.000     C          -0.105631           
         C33       1.0000    0.47300   0.94600   0.06630   Biso      1.000     C          -0.0213   
         C34       1.0000    0.87360   0.74720   0.80380   Biso      1.000     C          0.146557  
         C35       1.0000    0.97400   0.57310   0.53360   Biso      1.000     C          -0.105629           
         C36       1.0000    0.44290   0.88580   0.13780   Biso      1.000     C          0.627578  
         C37       1.0000    0.52700   0.47300   0.56630   Biso      1.000     C          -0.021309           
         C38       1.0000    0.42690   0.40090   0.53360   Biso      1.000     C          -0.105627           
         C39       1.0000    0.55710   0.44290   0.63780   Biso      1.000     C          0.627617  
         C40       1.0000    0.25280   0.12640   0.80380   Biso      1.000     C          0.146556  
         C41       1.0000    0.40090   0.97400   0.03360   Biso      1.000     C          -0.105625           
         C42       1.0000    0.94600   0.47300   0.56630   Biso      1.000     C          -0.021313           
         C43       1.0000    0.47300   0.94600   0.43370   Biso      1.000     C          -0.021299           
         C44       1.0000    0.02600   0.42690   0.03360   Biso      1.000     C          -0.105631           
         C45       1.0000    0.88580   0.44290   0.63780   Biso      1.000     C          0.627616  
         C46       1.0000    0.87360   0.12640   0.80380   Biso      1.000     C          0.14656   
         C47       1.0000    0.74720   0.87360   0.30380   Biso      1.000     C          0.146448  
         C48       1.0000    0.44290   0.88580   0.36220   Biso      1.000     C          0.627577  
         C49       1.0000    0.40090   0.42690   0.46640   Biso      1.000     C          -0.105627           
         C50       1.0000    0.05400   0.52700   0.43370   Biso      1.000     C          -0.021302           
         C51       1.0000    0.11420   0.55710   0.36220   Biso      1.000     C          0.627576  
         C52       1.0000    0.52700   0.05400   0.56630   Biso      1.000     C          -0.021312           
         C53       1.0000    0.57310   0.97400   0.46640   Biso      1.000     C          -0.105628           
         C54       1.0000    0.87360   0.74720   0.69620   Biso      1.000     C          0.146564  
         C55       1.0000    0.47300   0.52700   0.06630   Biso      1.000     C          -0.021301           
         C56       1.0000    0.02600   0.59910   0.46640   Biso      1.000     C          -0.105626           
         C57       1.0000    0.44290   0.55710   0.13780   Biso      1.000     C          0.627582  
         C58       1.0000    0.55710   0.11420   0.63780   Biso      1.000     C          0.627616  
         C59       1.0000    0.57310   0.59910   0.03360   Biso      1.000     C          -0.105625           
         C60       1.0000    0.12640   0.25280   0.30380   Biso      1.000     C          0.146488  
         H1        1.0000    0.33460   0.37670   0.05670   Biso      1.000     H          0.116594  
         H2        1.0000    0.86080   0.13920   0.64830   Biso      1.000     H          0.094872  
         H3        1.0000    0.04210   0.66540   0.05670   Biso      1.000     H          0.116595  
         H4        1.0000    0.62330   0.95790   0.05670   Biso      1.000     H          0.116595  
         H5        1.0000    0.86080   0.72160   0.85170   Biso      1.000     H          0.094873  
         H6        1.0000    0.86080   0.72160   0.64830   Biso      1.000     H          0.094873  
         H7        1.0000    0.66540   0.04210   0.55670   Biso      1.000     H          0.116575  
         H8        1.0000    0.95790   0.62330   0.55670   Biso      1.000     H          0.116572  
         H9        1.0000    0.27840   0.13920   0.85170   Biso      1.000     H          0.094867  
         H10       1.0000    0.37670   0.33460   0.55670   Biso      1.000     H          0.116575  
         H11       1.0000    0.33460   0.95790   0.05670   Biso      1.000     H          0.116594  
         H12       1.0000    0.86080   0.13920   0.85170   Biso      1.000     H          0.094872  
         H13       1.0000    0.04210   0.37670   0.05670   Biso      1.000     H          0.116593  
         H14       1.0000    0.62330   0.66540   0.05670   Biso      1.000     H          0.116595  
         H15       1.0000    0.13920   0.27840   0.35170   Biso      1.000     H          0.094889  
         H16       1.0000    0.04210   0.66540   0.44330   Biso      1.000     H          0.116594  
         H17       1.0000    0.62330   0.95790   0.44330   Biso      1.000     H          0.116594  
         H18       1.0000    0.72160   0.86080   0.35170   Biso      1.000     H          0.094882  
         H19       1.0000    0.33460   0.37670   0.44330   Biso      1.000     H          0.116593  
         H20       1.0000    0.66540   0.62330   0.55670   Biso      1.000     H          0.116575  
         H21       1.0000    0.95790   0.33460   0.94330   Biso      1.000     H          0.116573  
         H22       1.0000    0.37670   0.04210   0.94330   Biso      1.000     H          0.116574  
         H23       1.0000    0.66540   0.62330   0.94330   Biso      1.000     H          0.116575  
         H24       1.0000    0.72160   0.86080   0.14830   Biso      1.000     H          0.094881  
         H25       1.0000    0.33460   0.95790   0.44330   Biso      1.000     H          0.116594  
         H26       1.0000    0.04210   0.37670   0.44330   Biso      1.000     H          0.116593  
         H27       1.0000    0.13920   0.27840   0.14830   Biso      1.000     H          0.094888  
         H28       1.0000    0.62330   0.66540   0.44330   Biso      1.000     H          0.116595  
         H29       1.0000    0.13920   0.86080   0.14830   Biso      1.000     H          0.094854  
         H30       1.0000    0.95790   0.62330   0.94330   Biso      1.000     H          0.116572  
         H31       1.0000    0.37670   0.33460   0.94330   Biso      1.000     H          0.116575  
         H32       1.0000    0.27840   0.13920   0.64830   Biso      1.000     H          0.094868  
         H33       1.0000    0.95790   0.33460   0.55670   Biso      1.000     H          0.116573  
         H34       1.0000    0.37670   0.04210   0.55670   Biso      1.000     H          0.116574  
         H35       1.0000    0.13920   0.86080   0.35170   Biso      1.000     H          0.094854  
         H36       1.0000    0.66540   0.04210   0.94330   Biso      1.000     H          0.116575  
         In1       1.0000    0.75119   0.24881   0.75000   Biso      1.000     In          1.465809  
         In2       1.0000    0.50238   0.75119   0.25000   Biso      1.000     In          1.465833  
         In3       1.0000    0.24881   0.49762   0.25000   Biso      1.000     In          1.465835  
         In4       1.0000    0.24881   0.75119   0.25000   Biso      1.000     In          1.465748  
         In5       1.0000    0.49762   0.24881   0.75000   Biso      1.000     In          1.465877  
         In6       1.0000    0.75119   0.50238   0.75000   Biso      1.000     In          1.465876  
         N1        1.0000    0.14540   0.07270   0.78760   Biso      1.000     N          -0.11547  
         N2        1.0000    0.85460   0.92730   0.28760   Biso      1.000     N          -0.115457           
         N3        1.0000    0.85460   0.92730   0.21240   Biso      1.000     N          -0.115432           
         N4        1.0000    0.07270   0.14540   0.21240   Biso      1.000     N          -0.115521           
         N5        1.0000    0.07270   0.14540   0.28760   Biso      1.000     N          -0.115496           
         N6        1.0000    0.07270   0.92730   0.21240   Biso      1.000     N          -0.115586           
         N7        1.0000    0.92730   0.07270   0.78760   Biso      1.000     N          -0.115462           
         N8        1.0000    0.14540   0.07270   0.71240   Biso      1.000     N          -0.115441           
         N9        1.0000    0.92730   0.85460   0.71240   Biso      1.000     N          -0.115468           
         N10       1.0000    0.07270   0.92730   0.28760   Biso      1.000     N          -0.11556  
         N11       1.0000    0.84080   0.68160   0.75000   Biso      1.000     N          -0.294362           
         N12       1.0000    0.68160   0.84080   0.25000   Biso      1.000     N          -0.294404           
         N13       1.0000    0.15920   0.31840   0.25000   Biso      1.000     N          -0.294412           
         N14       1.0000    0.92730   0.85460   0.78760   Biso      1.000     N          -0.115431           
         N15       1.0000    0.84080   0.15920   0.75000   Biso      1.000     N          -0.294353           
         N16       1.0000    0.15920   0.84080   0.25000   Biso      1.000     N          -0.294439           
         N17       1.0000    0.92730   0.07270   0.71240   Biso      1.000     N          -0.115432           
         N18       1.0000    0.31840   0.15920   0.75000   Biso      1.000     N          -0.294371           
         O1        1.0000    0.35100   0.48750   0.33550   Biso      1.000     O          -0.581869           
         O2        1.0000    0.51250   0.86350   0.33550   Biso      1.000     O          -0.581877           
         O3        1.0000    0.48750   0.35100   0.66450   Biso      1.000     O          -0.581891           
         O4        1.0000    0.51250   0.64900   0.16450   Biso      1.000     O          -0.581865           
         O5        1.0000    0.13650   0.48750   0.16450   Biso      1.000     O          -0.581879           
         O6        1.0000    0.35100   0.86350   0.16450   Biso      1.000     O          -0.581857           
         O7        1.0000    0.86350   0.51250   0.66450   Biso      1.000     O          -0.581893           
         O8        1.0000    0.86350   0.35100   0.83550   Biso      1.000     O          -0.581883           
         O9        1.0000    0.13650   0.64900   0.33550   Biso      1.000     O          -0.581855           
         O10       1.0000    0.66667   0.33333   0.75000   Biso      1.000     O          -1.056624           
         O11       1.0000    0.86350   0.51250   0.83550   Biso      1.000     O          -0.581893           
         O12       1.0000    0.64900   0.51250   0.83550   Biso      1.000     O          -0.581893           
         O13       1.0000    0.35100   0.86350   0.33550   Biso      1.000     O          -0.581857           
         O14       1.0000    0.13650   0.48750   0.33550   Biso      1.000     O          -0.581879           
         O15       1.0000    0.51250   0.64900   0.33550   Biso      1.000     O          -0.581865           
         O16       1.0000    0.64900   0.13650   0.83550   Biso      1.000     O          -0.581884           
         O17       1.0000    0.33333   0.66667   0.25000   Biso      1.000     O          -1.056268           
         O18       1.0000    0.48750   0.35100   0.83550   Biso      1.000     O          -0.581893           
         O19       1.0000    0.86350   0.35100   0.66450   Biso      1.000     O          -0.581882           
         O20       1.0000    0.48750   0.13650   0.66450   Biso      1.000     O          -0.581893           
         O21       1.0000    0.64900   0.51250   0.66450   Biso      1.000     O          -0.581893           
         O22       1.0000    0.13650   0.64900   0.16450   Biso      1.000     O          -0.581855           
         O23       1.0000    0.51250   0.86350   0.16450   Biso      1.000     O          -0.581877           
         O24       1.0000    0.35100   0.48750   0.16450   Biso      1.000     O          -0.581869           
         O25       1.0000    0.48750   0.13650   0.83550   Biso      1.000     O          -0.581894           
         O26       1.0000    0.64900   0.13650   0.66450   Biso      1.000     O          -0.581883 