
##########################################################################
#               Crystallographic Information Format file
#               Produced by PyCifRW module
#
#  This is a CIF file.  CIF has been adopted by the International
#  Union of Crystallography as the standard for data archiving and
#  transmission.
#
#  For information on this file format, follow the CIF links at
#  http://www.iucr.org
##########################################################################

data_image0

_cell_length_a                          13.905
_cell_length_b                          13.905
_cell_length_c                          18.4663
_cell_angle_alpha                       90
_cell_angle_beta                        90
_cell_angle_gamma                       120
_symmetry_space_group_name_H-M          'P 1'
_symmetry_int_tables_number             1
loop_
  _symmetry_equiv_pos_as_xyz
         'x, y, z' 
loop_
  _atom_site_label
  _atom_site_occupancy
  _atom_site_fract_x
  _atom_site_fract_y
  _atom_site_fract_z
  _atom_site_thermal_displace_type
  _atom_site_B_iso_or_equiv
  _atom_site_type_symbol
  _atom_site_charge
         C1        1.0000    0.42870   0.40160   0.03320   Biso      1.000     C          -0.10800599999999999          
         C2        1.0000    0.94580   0.47290   0.06660   Biso      1.000     C          -0.017644           
         C3        1.0000    0.87490   0.12510   0.30680   Biso      1.000     C          0.121526  
         C4        1.0000    0.87490   0.74980   0.30680   Biso      1.000     C          0.121522  
         C5        1.0000    0.02710   0.59840   0.96680   Biso      1.000     C          -0.10800599999999999          
         C6        1.0000    0.40160   0.42870   0.96680   Biso      1.000     C          -0.108003           
         C7        1.0000    0.25020   0.12510   0.30680   Biso      1.000     C          0.121522  
         C8        1.0000    0.57130   0.97290   0.96680   Biso      1.000     C          -0.10800599999999999          
         C9        1.0000    0.88610   0.44305   0.13780   Biso      1.000     C          0.6277739999999999  
         C10       1.0000    0.97290   0.40160   0.46680   Biso      1.000     C          -0.108002           
         C11       1.0000    0.59840   0.57130   0.46680   Biso      1.000     C          -0.108001           
         C12       1.0000    0.42870   0.02710   0.46680   Biso      1.000     C          -0.108003           
         C13       1.0000    0.12510   0.25020   0.80680   Biso      1.000     C          0.12152   
         C14       1.0000    0.59840   0.02710   0.03320   Biso      1.000     C          -0.108003           
         C15       1.0000    0.44305   0.88610   0.63780   Biso      1.000     C          0.6277729999999999  
         C16       1.0000    0.74980   0.87490   0.80680   Biso      1.000     C          0.121522  
         C17       1.0000    0.97290   0.57130   0.03320   Biso      1.000     C          -0.107998           
         C18       1.0000    0.12510   0.87490   0.80680   Biso      1.000     C          0.12152400000000001           
         C19       1.0000    0.52710   0.47290   0.06660   Biso      1.000     C          -0.01764  
         C20       1.0000    0.55695   0.44305   0.13780   Biso      1.000     C          0.6277699999999999  
         C21       1.0000    0.52710   0.05420   0.06660   Biso      1.000     C          -0.017641           
         C22       1.0000    0.47290   0.94580   0.93340   Biso      1.000     C          -0.01764  
         C23       1.0000    0.44305   0.88610   0.86220   Biso      1.000     C          0.627775  
         C24       1.0000    0.47290   0.52710   0.93340   Biso      1.000     C          -0.017641           
         C25       1.0000    0.44305   0.55695   0.86220   Biso      1.000     C          0.6277699999999999  
         C26       1.0000    0.05420   0.52710   0.93340   Biso      1.000     C          -0.01764  
         C27       1.0000    0.11390   0.55695   0.86220   Biso      1.000     C          0.6277739999999999  
         C28       1.0000    0.52710   0.05420   0.43340   Biso      1.000     C          -0.017637           
         C29       1.0000    0.55695   0.11390   0.36220   Biso      1.000     C          0.6277729999999999  
         C30       1.0000    0.52710   0.47290   0.43340   Biso      1.000     C          -0.017637           
         C31       1.0000    0.55695   0.44305   0.36220   Biso      1.000     C          0.6277689999999999  
         C32       1.0000    0.94580   0.47290   0.43340   Biso      1.000     C          -0.017639           
         C33       1.0000    0.88610   0.44305   0.36220   Biso      1.000     C          0.6277739999999999  
         C34       1.0000    0.44305   0.55695   0.63780   Biso      1.000     C          0.6277689999999999  
         C35       1.0000    0.47290   0.52710   0.56660   Biso      1.000     C          -0.01764  
         C36       1.0000    0.11390   0.55695   0.63780   Biso      1.000     C          0.6277739999999999  
         C37       1.0000    0.05420   0.52710   0.56660   Biso      1.000     C          -0.017643           
         C38       1.0000    0.55695   0.11390   0.13780   Biso      1.000     C          0.6277739999999999  
         C39       1.0000    0.40160   0.97290   0.53320   Biso      1.000     C          -0.107998           
         C40       1.0000    0.12510   0.87490   0.69320   Biso      1.000     C          0.121529  
         C41       1.0000    0.47290   0.94580   0.56660   Biso      1.000     C          -0.017637           
         C42       1.0000    0.02710   0.59840   0.53320   Biso      1.000     C          -0.107998           
         C43       1.0000    0.12510   0.25020   0.69320   Biso      1.000     C          0.121525  
         C44       1.0000    0.87490   0.12510   0.19320   Biso      1.000     C          0.121527  
         C45       1.0000    0.59840   0.57130   0.03320   Biso      1.000     C          -0.108002           
         C46       1.0000    0.40160   0.42870   0.53320   Biso      1.000     C          -0.10799700000000001          
         C47       1.0000    0.57130   0.97290   0.53320   Biso      1.000     C          -0.108    
         C48       1.0000    0.25020   0.12510   0.19320   Biso      1.000     C          0.121522  
         C49       1.0000    0.40160   0.97290   0.96680   Biso      1.000     C          -0.108002           
         C50       1.0000    0.97290   0.40160   0.03320   Biso      1.000     C          -0.108001           
         C51       1.0000    0.57130   0.59840   0.53320   Biso      1.000     C          -0.10799500000000001          
         C52       1.0000    0.57130   0.59840   0.96680   Biso      1.000     C          -0.107999           
         C53       1.0000    0.02710   0.42870   0.96680   Biso      1.000     C          -0.107999           
         C54       1.0000    0.74980   0.87490   0.69320   Biso      1.000     C          0.121522  
         C55       1.0000    0.59840   0.02710   0.46680   Biso      1.000     C          -0.10799600000000001          
         C56       1.0000    0.02710   0.42870   0.53320   Biso      1.000     C          -0.10799700000000001          
         C57       1.0000    0.42870   0.40160   0.46680   Biso      1.000     C          -0.10799600000000001          
         C58       1.0000    0.97290   0.57130   0.46680   Biso      1.000     C          -0.107998           
         C59       1.0000    0.87490   0.74980   0.19320   Biso      1.000     C          0.121522  
         C60       1.0000    0.42870   0.02710   0.03320   Biso      1.000     C          -0.107999           
         Co1       1.0000    0.00000   0.00000   0.35738   Biso      1.000     Co          0.25215   
         Co2       1.0000    0.00000   0.00000   0.64262   Biso      1.000     Co          0.252153  
         Co3       1.0000    0.00000   0.00000   0.85738   Biso      1.000     Co          0.252153  
         Co4       1.0000    0.00000   0.00000   0.14262   Biso      1.000     Co          0.252157  
         H1        1.0000    0.95490   0.33450   0.44480   Biso      1.000     H          0.111694  
         H2        1.0000    0.62040   0.66550   0.94480   Biso      1.000     H          0.111697  
         H3        1.0000    0.13700   0.27400   0.85470   Biso      1.000     H          0.098855  
         H4        1.0000    0.37960   0.33450   0.05520   Biso      1.000     H          0.111697  
         H5        1.0000    0.04510   0.37960   0.94480   Biso      1.000     H          0.111696  
         H6        1.0000    0.95490   0.33450   0.05520   Biso      1.000     H          0.111696  
         H7        1.0000    0.86300   0.72600   0.14530   Biso      1.000     H          0.098855  
         H8        1.0000    0.27400   0.13700   0.14530   Biso      1.000     H          0.098855  
         H9        1.0000    0.66550   0.04510   0.44480   Biso      1.000     H          0.111694  
         H10       1.0000    0.72600   0.86300   0.85470   Biso      1.000     H          0.098855  
         H11       1.0000    0.37960   0.33450   0.44480   Biso      1.000     H          0.111694  
         H12       1.0000    0.33450   0.95490   0.55520   Biso      1.000     H          0.111694  
         H13       1.0000    0.04510   0.37960   0.55520   Biso      1.000     H          0.111693  
         H14       1.0000    0.95490   0.62040   0.44480   Biso      1.000     H          0.111693  
         H15       1.0000    0.13700   0.86300   0.64530   Biso      1.000     H          0.098854  
         H16       1.0000    0.95490   0.62040   0.05520   Biso      1.000     H          0.111696  
         H17       1.0000    0.66550   0.04510   0.05520   Biso      1.000     H          0.111696  
         H18       1.0000    0.33450   0.95490   0.94480   Biso      1.000     H          0.111696  
         H19       1.0000    0.72600   0.86300   0.64530   Biso      1.000     H          0.098854  
         H20       1.0000    0.62040   0.95490   0.94480   Biso      1.000     H          0.111696  
         H21       1.0000    0.13700   0.27400   0.64530   Biso      1.000     H          0.098854  
         H22       1.0000    0.04510   0.66550   0.55520   Biso      1.000     H          0.111694  
         H23       1.0000    0.33450   0.37960   0.94480   Biso      1.000     H          0.111697  
         H24       1.0000    0.86300   0.72600   0.35470   Biso      1.000     H          0.098854  
         H25       1.0000    0.37960   0.04510   0.05520   Biso      1.000     H          0.111696  
         H26       1.0000    0.04510   0.66550   0.94480   Biso      1.000     H          0.111696  
         H27       1.0000    0.66550   0.62040   0.44480   Biso      1.000     H          0.111695  
         H28       1.0000    0.86300   0.13700   0.35470   Biso      1.000     H          0.098854  
         H29       1.0000    0.13700   0.86300   0.85470   Biso      1.000     H          0.098855  
         H30       1.0000    0.33450   0.37960   0.55520   Biso      1.000     H          0.111695  
         H31       1.0000    0.37960   0.04510   0.44480   Biso      1.000     H          0.111693  
         H32       1.0000    0.86300   0.13700   0.14530   Biso      1.000     H          0.098855  
         H33       1.0000    0.62040   0.95490   0.55520   Biso      1.000     H          0.111693  
         H34       1.0000    0.66550   0.62040   0.05520   Biso      1.000     H          0.111697  
         H35       1.0000    0.27400   0.13700   0.35470   Biso      1.000     H          0.098854  
         H36       1.0000    0.62040   0.66550   0.55520   Biso      1.000     H          0.111694  
         In1       1.0000    0.75095   0.50190   0.25000   Biso      1.000     In          1.465739  
         In2       1.0000    0.50190   0.75095   0.75000   Biso      1.000     In          1.465739  
         In3       1.0000    0.24905   0.49810   0.75000   Biso      1.000     In          1.465739  
         In4       1.0000    0.24905   0.75095   0.75000   Biso      1.000     In          1.465859  
         In5       1.0000    0.49810   0.24905   0.25000   Biso      1.000     In          1.465739  
         In6       1.0000    0.75095   0.24905   0.25000   Biso      1.000     In          1.465859  
         N1        1.0000    0.92751   0.85502   0.21260   Biso      1.000     N          -0.153657           
         N2        1.0000    0.07249   0.14498   0.71260   Biso      1.000     N          -0.153657           
         N3        1.0000    0.07249   0.92751   0.71260   Biso      1.000     N          -0.153657           
         N4        1.0000    0.85502   0.92751   0.78740   Biso      1.000     N          -0.153656           
         N5        1.0000    0.92751   0.07249   0.21260   Biso      1.000     N          -0.153657           
         N6        1.0000    0.07249   0.14498   0.78740   Biso      1.000     N          -0.153635           
         N7        1.0000    0.14498   0.07249   0.21260   Biso      1.000     N          -0.153657           
         N8        1.0000    0.07249   0.92751   0.78740   Biso      1.000     N          -0.153636           
         N9        1.0000    0.14498   0.07249   0.28740   Biso      1.000     N          -0.153635           
         N10       1.0000    0.85502   0.92751   0.71260   Biso      1.000     N          -0.153635           
         N11       1.0000    0.84070   0.68140   0.25000   Biso      1.000     N          -0.321327           
         N12       1.0000    0.68140   0.84070   0.75000   Biso      1.000     N          -0.321327           
         N13       1.0000    0.15930   0.31860   0.75000   Biso      1.000     N          -0.321327           
         N14       1.0000    0.92751   0.07249   0.28740   Biso      1.000     N          -0.153636           
         N15       1.0000    0.84070   0.15930   0.25000   Biso      1.000     N          -0.321347           
         N16       1.0000    0.15930   0.84070   0.75000   Biso      1.000     N          -0.321347           
         N17       1.0000    0.92751   0.85502   0.28740   Biso      1.000     N          -0.153635           
         N18       1.0000    0.31860   0.15930   0.25000   Biso      1.000     N          -0.321327           
         O1        1.0000    0.13680   0.48830   0.66453   Biso      1.000     O          -0.582892           
         O2        1.0000    0.51170   0.64850   0.66453   Biso      1.000     O          -0.5828899999999999           
         O3        1.0000    0.48830   0.13680   0.33547   Biso      1.000     O          -0.582892           
         O4        1.0000    0.51170   0.86320   0.83547   Biso      1.000     O          -0.5828909999999999           
         O5        1.0000    0.35150   0.48830   0.83547   Biso      1.000     O          -0.582889           
         O6        1.0000    0.13680   0.64850   0.83547   Biso      1.000     O          -0.58291  
         O7        1.0000    0.64850   0.51170   0.33547   Biso      1.000     O          -0.582889           
         O8        1.0000    0.64850   0.13680   0.16453   Biso      1.000     O          -0.58291  
         O9        1.0000    0.35150   0.86320   0.66453   Biso      1.000     O          -0.582911           
         O10       1.0000    0.66667   0.33333   0.25000   Biso      1.000     O          -1.048403           
         O11       1.0000    0.64850   0.51170   0.16453   Biso      1.000     O          -0.582889           
         O12       1.0000    0.86320   0.51170   0.16453   Biso      1.000     O          -0.5828909999999999           
         O13       1.0000    0.13680   0.64850   0.66453   Biso      1.000     O          -0.582911           
         O14       1.0000    0.35150   0.48830   0.66453   Biso      1.000     O          -0.582889           
         O15       1.0000    0.51170   0.86320   0.66453   Biso      1.000     O          -0.582892           
         O16       1.0000    0.86320   0.35150   0.16453   Biso      1.000     O          -0.58291  
         O17       1.0000    0.33333   0.66667   0.75000   Biso      1.000     O          -1.048403           
         O18       1.0000    0.48830   0.13680   0.16453   Biso      1.000     O          -0.5828909999999999           
         O19       1.0000    0.64850   0.13680   0.33547   Biso      1.000     O          -0.582911           
         O20       1.0000    0.48830   0.35150   0.33547   Biso      1.000     O          -0.5828899999999999           
         O21       1.0000    0.86320   0.51170   0.33547   Biso      1.000     O          -0.582892           
         O22       1.0000    0.35150   0.86320   0.83547   Biso      1.000     O          -0.58291  
         O23       1.0000    0.51170   0.64850   0.83547   Biso      1.000     O          -0.582889           
         O24       1.0000    0.13680   0.48830   0.83547   Biso      1.000     O          -0.5828909999999999           
         O25       1.0000    0.48830   0.35150   0.16453   Biso      1.000     O          -0.582889           
         O26       1.0000    0.86320   0.35150   0.33547   Biso      1.000     O          -0.582911 