
##########################################################################
#               Crystallographic Information Format file
#               Produced by PyCifRW module
#
#  This is a CIF file.  CIF has been adopted by the International
#  Union of Crystallography as the standard for data archiving and
#  transmission.
#
#  For information on this file format, follow the CIF links at
#  http://www.iucr.org
##########################################################################

data_image0

_cell_length_a                          17.8729
_cell_length_b                          8.7298
_cell_length_c                          22.7524
_cell_angle_alpha                       90
_cell_angle_beta                        96.072
_cell_angle_gamma                       90
_symmetry_space_group_name_H-M          'P 1'
_symmetry_int_tables_number             1
loop_
  _symmetry_equiv_pos_as_xyz
         'x, y, z' 
loop_
  _atom_site_label
  _atom_site_occupancy
  _atom_site_fract_x
  _atom_site_fract_y
  _atom_site_fract_z
  _atom_site_thermal_displace_type
  _atom_site_B_iso_or_equiv
  _atom_site_type_symbol
  _atom_site_charge
         C1        1.0000    0.47240   0.73690   0.75220   Biso      1.000     C          -0.174749           
         C2        1.0000    0.24280   0.34500   0.63200   Biso      1.000     C          -0.17123  
         C3        1.0000    0.29090   0.39860   0.67940   Biso      1.000     C          0.101244  
         C4        1.0000    0.21030   0.32140   0.52270   Biso      1.000     C          0.149769  
         C5        1.0000    0.13500   0.33720   0.51330   Biso      1.000     C          -0.085506           
         C6        1.0000    0.08700   0.26030   0.46240   Biso      1.000     C          -0.07212  
         C7        1.0000    0.13980   0.20700   0.41740   Biso      1.000     C          -0.075584           
         C8        1.0000    0.21450   0.19630   0.43000   Biso      1.000     C          0.14278   
         C9        1.0000    0.37290   0.17540   0.33450   Biso      1.000     C          0.093428  
         C10       1.0000    0.32460   0.23040   0.37340   Biso      1.000     C          -0.201769           
         C11       1.0000    0.26620   0.13750   0.38790   Biso      1.000     C          0.079161  
         C12       1.0000    0.25920   0.99320   0.36400   Biso      1.000     C          -0.178374           
         C13       1.0000    0.31100   0.94650   0.32630   Biso      1.000     C          0.078651  
         C14       1.0000    0.03380   0.60860   0.03850   Biso      1.000     C          -0.132183           
         C15       1.0000    0.07550   0.48310   0.02120   Biso      1.000     C          -0.154142           
         C16       1.0000    0.04190   0.37460   0.98290   Biso      1.000     C          0.09321   
         C17       1.0000    0.09690   0.07050   0.05270   Biso      1.000     C          0.24311300000000002           
         C18       1.0000    0.10460   0.32920   0.85980   Biso      1.000     C          0.242031  
         C19       1.0000    0.36400   0.97460   0.11850   Biso      1.000     C          0.075401  
         C20       1.0000    0.32020   0.02530   0.06860   Biso      1.000     C          -0.198689           
         C21       1.0000    0.25800   0.11680   0.07510   Biso      1.000     C          0.071713  
         C22       1.0000    0.24280   0.15500   0.13200   Biso      1.000     C          -0.171228           
         C23       1.0000    0.29090   0.10140   0.17940   Biso      1.000     C          0.101243  
         C24       1.0000    0.21030   0.17860   0.02270   Biso      1.000     C          0.14977000000000001           
         C25       1.0000    0.13500   0.16280   0.01330   Biso      1.000     C          -0.085506           
         C26       1.0000    0.08700   0.23970   0.96240   Biso      1.000     C          -0.07212  
         C27       1.0000    0.25800   0.38320   0.57510   Biso      1.000     C          0.071714  
         C28       1.0000    0.13980   0.29300   0.91740   Biso      1.000     C          -0.075584           
         C29       1.0000    0.32020   0.47470   0.56860   Biso      1.000     C          -0.198689           
         C30       1.0000    0.10460   0.17080   0.35980   Biso      1.000     C          0.242031  
         C31       1.0000    0.96620   0.39140   0.96150   Biso      1.000     C          -0.132184           
         C32       1.0000    0.92450   0.51690   0.97880   Biso      1.000     C          -0.154142           
         C33       1.0000    0.95810   0.62540   0.01710   Biso      1.000     C          0.09321   
         C34       1.0000    0.90310   0.92950   0.94730   Biso      1.000     C          0.243112  
         C35       1.0000    0.89540   0.67080   0.14020   Biso      1.000     C          0.242031  
         C36       1.0000    0.63600   0.02540   0.88150   Biso      1.000     C          0.075401  
         C37       1.0000    0.67980   0.97470   0.93140   Biso      1.000     C          -0.198689           
         C38       1.0000    0.74200   0.88320   0.92490   Biso      1.000     C          0.071713  
         C39       1.0000    0.75720   0.84500   0.86800   Biso      1.000     C          -0.171228           
         C40       1.0000    0.70910   0.89860   0.82060   Biso      1.000     C          0.101244  
         C41       1.0000    0.78970   0.82140   0.97730   Biso      1.000     C          0.149769  
         C42       1.0000    0.86500   0.83720   0.98670   Biso      1.000     C          -0.085506           
         C43       1.0000    0.91300   0.76030   0.03760   Biso      1.000     C          -0.07212  
         C44       1.0000    0.86020   0.70700   0.08260   Biso      1.000     C          -0.075584           
         C45       1.0000    0.78550   0.69630   0.07000   Biso      1.000     C          0.142779  
         C46       1.0000    0.62710   0.67540   0.16550   Biso      1.000     C          0.093429  
         C47       1.0000    0.67540   0.73040   0.12660   Biso      1.000     C          -0.201769           
         C48       1.0000    0.73380   0.63750   0.11210   Biso      1.000     C          0.079162  
         C49       1.0000    0.74080   0.49320   0.13600   Biso      1.000     C          -0.178374           
         C50       1.0000    0.68900   0.44650   0.17370   Biso      1.000     C          0.078652  
         C51       1.0000    0.47240   0.76310   0.25220   Biso      1.000     C          -0.17474800000000001          
         C52       1.0000    0.03380   0.89140   0.53850   Biso      1.000     C          -0.132183           
         C53       1.0000    0.07550   0.01690   0.52120   Biso      1.000     C          -0.154142           
         C54       1.0000    0.04190   0.12540   0.48290   Biso      1.000     C          0.09321   
         C55       1.0000    0.09690   0.42950   0.55270   Biso      1.000     C          0.24311300000000002           
         C56       1.0000    0.36400   0.52540   0.61850   Biso      1.000     C          0.075403  
         C57       1.0000    0.21450   0.30370   0.93000   Biso      1.000     C          0.142779  
         C58       1.0000    0.52760   0.26310   0.24780   Biso      1.000     C          -0.174753           
         C59       1.0000    0.37290   0.32460   0.83450   Biso      1.000     C          0.093429  
         C60       1.0000    0.92450   0.98310   0.47880   Biso      1.000     C          -0.154141           
         C61       1.0000    0.95810   0.87460   0.51710   Biso      1.000     C          0.09321   
         C62       1.0000    0.90310   0.57050   0.44730   Biso      1.000     C          0.24311300000000002           
         C63       1.0000    0.89540   0.82920   0.64020   Biso      1.000     C          0.242031  
         C64       1.0000    0.63600   0.47460   0.38150   Biso      1.000     C          0.075401  
         C65       1.0000    0.74200   0.61680   0.42490   Biso      1.000     C          0.071712  
         C66       1.0000    0.75720   0.65500   0.36800   Biso      1.000     C          -0.171228           
         C67       1.0000    0.70910   0.60140   0.32060   Biso      1.000     C          0.101244  
         C68       1.0000    0.96620   0.10860   0.46150   Biso      1.000     C          -0.132184           
         C69       1.0000    0.78970   0.67860   0.47730   Biso      1.000     C          0.149769  
         C70       1.0000    0.91300   0.73970   0.53760   Biso      1.000     C          -0.07212  
         C71       1.0000    0.86020   0.79300   0.58260   Biso      1.000     C          -0.075584           
         C72       1.0000    0.78550   0.80370   0.57000   Biso      1.000     C          0.142779  
         C73       1.0000    0.62710   0.82460   0.66550   Biso      1.000     C          0.093429  
         C74       1.0000    0.67540   0.76960   0.62660   Biso      1.000     C          -0.201769           
         C75       1.0000    0.73380   0.86250   0.61210   Biso      1.000     C          0.079162  
         C76       1.0000    0.74080   0.00680   0.63600   Biso      1.000     C          -0.178374           
         C77       1.0000    0.68900   0.05350   0.67370   Biso      1.000     C          0.078652  
         C78       1.0000    0.86500   0.66280   0.48670   Biso      1.000     C          -0.085506           
         C79       1.0000    0.52760   0.23690   0.74780   Biso      1.000     C          -0.174749           
         C80       1.0000    0.67980   0.52530   0.43140   Biso      1.000     C          -0.198687           
         C81       1.0000    0.32460   0.26960   0.87340   Biso      1.000     C          -0.201769           
         C82       1.0000    0.26620   0.36250   0.88790   Biso      1.000     C          0.079162  
         C83       1.0000    0.25920   0.50680   0.86400   Biso      1.000     C          -0.178374           
         C84       1.0000    0.31100   0.55350   0.82630   Biso      1.000     C          0.078652  
         Cu1       1.0000    0.43255   0.96245   0.24480   Biso      1.000     Cu          0.244338  
         Cu2       1.0000    0.56745   0.46245   0.25520   Biso      1.000     Cu          0.24434   
         Cu3       1.0000    0.43255   0.53755   0.74480   Biso      1.000     Cu          0.244337  
         Cu4       1.0000    0.56745   0.03755   0.75520   Biso      1.000     Cu          0.244339  
         H1        1.0000    0.70290   0.72640   0.00780   Biso      1.000     H          0.300101  
         H2        1.0000    0.05680   0.81890   0.56440   Biso      1.000     H          0.121903  
         H3        1.0000    0.94320   0.31890   0.93560   Biso      1.000     H          0.121903  
         H4        1.0000    0.94810   0.66390   0.55660   Biso      1.000     H          0.113701  
         H5        1.0000    0.69340   0.34810   0.18940   Biso      1.000     H          0.098978  
         H6        1.0000    0.20140   0.21520   0.13810   Biso      1.000     H          0.141347  
         H7        1.0000    0.77930   0.42830   0.12710   Biso      1.000     H          0.13989000000000001           
         H8        1.0000    0.29710   0.22640   0.49220   Biso      1.000     H          0.300101  
         H9        1.0000    0.28040   0.12780   0.21730   Biso      1.000     H          0.09270700000000001           
         H10       1.0000    0.66890   0.82790   0.11050   Biso      1.000     H          0.13153099999999998           
         H11       1.0000    0.58890   0.76090   0.67580   Biso      1.000     H          0.104993  
         H12       1.0000    0.58890   0.73910   0.17580   Biso      1.000     H          0.104993  
         H13       1.0000    0.12590   0.02700   0.53560   Biso      1.000     H          0.11308299999999999           
         H14       1.0000    0.22070   0.57170   0.87290   Biso      1.000     H          0.13989000000000001           
         H15       1.0000    0.94810   0.83610   0.05660   Biso      1.000     H          0.113701  
         H16       1.0000    0.77930   0.07170   0.62710   Biso      1.000     H          0.13989000000000001           
         H17       1.0000    0.05190   0.16390   0.94340   Biso      1.000     H          0.113701  
         H18       1.0000    0.71960   0.87220   0.78270   Biso      1.000     H          0.09270700000000001           
         H19       1.0000    0.69340   0.15190   0.68940   Biso      1.000     H          0.098978  
         H20       1.0000    0.79860   0.78480   0.86190   Biso      1.000     H          0.141347  
         H21       1.0000    0.33110   0.17210   0.88950   Biso      1.000     H          0.13153199999999998           
         H22       1.0000    0.66780   0.00150   0.96890   Biso      1.000     H          0.128222  
         H23       1.0000    0.59560   0.08990   0.88610   Biso      1.000     H          0.103048  
         H24       1.0000    0.70290   0.77360   0.50780   Biso      1.000     H          0.300101  
         H25       1.0000    0.87410   0.52700   0.96440   Biso      1.000     H          0.11308299999999999           
         H26       1.0000    0.66890   0.67210   0.61050   Biso      1.000     H          0.13153099999999998           
         H27       1.0000    0.33220   0.99850   0.03110   Biso      1.000     H          0.128223  
         H28       1.0000    0.30660   0.65190   0.81060   Biso      1.000     H          0.098978  
         H29       1.0000    0.41110   0.26090   0.82420   Biso      1.000     H          0.104993  
         H30       1.0000    0.12590   0.47300   0.03560   Biso      1.000     H          0.11308299999999999           
         H31       1.0000    0.29710   0.27360   0.99220   Biso      1.000     H          0.300101  
         H32       1.0000    0.33110   0.32790   0.38950   Biso      1.000     H          0.13153199999999998           
         H33       1.0000    0.05190   0.33610   0.44340   Biso      1.000     H          0.113701  
         H34       1.0000    0.71960   0.62780   0.28270   Biso      1.000     H          0.09270700000000001           
         H35       1.0000    0.94320   0.18110   0.43560   Biso      1.000     H          0.121903  
         H36       1.0000    0.59560   0.41010   0.38610   Biso      1.000     H          0.103048  
         H37       1.0000    0.28040   0.37220   0.71730   Biso      1.000     H          0.09270700000000001           
         H38       1.0000    0.20140   0.28480   0.63810   Biso      1.000     H          0.141347  
         H39       1.0000    0.66780   0.49850   0.46890   Biso      1.000     H          0.128222  
         H40       1.0000    0.87410   0.97300   0.46440   Biso      1.000     H          0.11308299999999999           
         H41       1.0000    0.33220   0.50150   0.53110   Biso      1.000     H          0.128222  
         H42       1.0000    0.41110   0.23910   0.32420   Biso      1.000     H          0.104994  
         H43       1.0000    0.05680   0.68110   0.06440   Biso      1.000     H          0.121903  
         H44       1.0000    0.22070   0.92830   0.37290   Biso      1.000     H          0.13989000000000001           
         H45       1.0000    0.30660   0.84810   0.31060   Biso      1.000     H          0.098979  
         H46       1.0000    0.40440   0.58990   0.61390   Biso      1.000     H          0.103048  
         H47       1.0000    0.79860   0.71520   0.36190   Biso      1.000     H          0.141347  
         H48       1.0000    0.40440   0.91010   0.11390   Biso      1.000     H          0.103048  
         N1        1.0000    0.93640   0.49850   0.41660   Biso      1.000     N          -0.37235799999999997          
         N2        1.0000    0.49840   0.35500   0.74230   Biso      1.000     N          -0.336943           
         N3        1.0000    0.92570   0.85530   0.68580   Biso      1.000     N          -0.365197           
         N4        1.0000    0.64930   0.51490   0.32595   Biso      1.000     N          -0.171402           
         N5        1.0000    0.06360   0.50150   0.58340   Biso      1.000     N          -0.37235799999999997          
         N6        1.0000    0.75010   0.75550   0.51665   Biso      1.000     N          -0.34265999999999996          
         N7        1.0000    0.24990   0.25550   0.98335   Biso      1.000     N          -0.34265999999999996          
         N8        1.0000    0.63300   0.96500   0.68880   Biso      1.000     N          -0.171442           
         N9        1.0000    0.50160   0.85500   0.75770   Biso      1.000     N          -0.336943           
         N10       1.0000    0.35070   0.01490   0.17405   Biso      1.000     N          -0.171401           
         N11       1.0000    0.24990   0.24450   0.48335   Biso      1.000     N          -0.34265999999999996          
         N12       1.0000    0.07430   0.35530   0.81420   Biso      1.000     N          -0.365197           
         N13       1.0000    0.06360   0.99850   0.08340   Biso      1.000     N          -0.37235799999999997          
         N14       1.0000    0.49840   0.14500   0.24230   Biso      1.000     N          -0.336941           
         N15       1.0000    0.93640   0.00150   0.91660   Biso      1.000     N          -0.37235799999999997          
         N16       1.0000    0.92570   0.64470   0.18580   Biso      1.000     N          -0.365197           
         N17       1.0000    0.64930   0.98510   0.82595   Biso      1.000     N          -0.171402           
         N18       1.0000    0.50160   0.64500   0.25770   Biso      1.000     N          -0.336945           
         N19       1.0000    0.75010   0.74450   0.01665   Biso      1.000     N          -0.34265999999999996          
         N20       1.0000    0.63300   0.53500   0.18880   Biso      1.000     N          -0.171442           
         N21       1.0000    0.35070   0.48510   0.67405   Biso      1.000     N          -0.171402           
         N22       1.0000    0.07430   0.14470   0.31420   Biso      1.000     N          -0.365197           
         N23       1.0000    0.36700   0.03500   0.31120   Biso      1.000     N          -0.171441           
         N24       1.0000    0.36700   0.46500   0.81120   Biso      1.000     N          -0.171442 