
##########################################################################
#               Crystallographic Information Format file
#               Produced by PyCifRW module
#
#  This is a CIF file.  CIF has been adopted by the International
#  Union of Crystallography as the standard for data archiving and
#  transmission.
#
#  For information on this file format, follow the CIF links at
#  http://www.iucr.org
##########################################################################

data_image0

_cell_length_a                          10.07
_cell_length_b                          13.107
_cell_length_c                          15.216
_cell_angle_alpha                       78.42
_cell_angle_beta                        76.527
_cell_angle_gamma                       68.204
_symmetry_space_group_name_H-M          'P 1'
_symmetry_int_tables_number             1
loop_
  _symmetry_equiv_pos_as_xyz
         'x, y, z' 
loop_
  _atom_site_label
  _atom_site_occupancy
  _atom_site_fract_x
  _atom_site_fract_y
  _atom_site_fract_z
  _atom_site_thermal_displace_type
  _atom_site_B_iso_or_equiv
  _atom_site_type_symbol
  _atom_site_charge
         C1        1.0000    0.40980   0.39790   0.96950   Biso      1.000     C          -0.139752           
         C2        1.0000    0.72970   0.20410   0.46650   Biso      1.000     C          -0.144677           
         C3        1.0000    0.50770   0.76880   0.55560   Biso      1.000     C          -0.140145           
         C4        1.0000    0.77700   0.09920   0.44240   Biso      1.000     C          -0.098871           
         C5        1.0000    0.48910   0.45350   0.78660   Biso      1.000     C          -0.101035           
         C6        1.0000    0.49230   0.23120   0.44440   Biso      1.000     C          -0.140157           
         C7        1.0000    0.22300   0.90080   0.55760   Biso      1.000     C          -0.098869           
         C8        1.0000    0.54100   0.12590   0.41950   Biso      1.000     C          -0.097194           
         C9        1.0000    0.34490   0.47570   0.82450   Biso      1.000     C          -0.148337           
         C10       1.0000    0.68480   0.05970   0.41750   Biso      1.000     C          -0.027291000000000003         
         C11       1.0000    0.74180   0.94840   0.38340   Biso      1.000     C          0.592296  
         C12       1.0000    0.27030   0.79590   0.53350   Biso      1.000     C          -0.14466199999999999          
         C13       1.0000    0.41440   0.72760   0.53302   Biso      1.000     C          0.08341900000000001           
         C14       1.0000    0.46060   0.61160   0.51291   Biso      1.000     C          0.05645700000000001           
         C15       1.0000    0.37000   0.55030   0.55158   Biso      1.000     C          -0.164749           
         C16       1.0000    0.40630   0.44060   0.54055   Biso      1.000     C          -0.053309           
         C17       1.0000    0.30290   0.38270   0.59230   Biso      1.000     C          0.650475  
         C18       1.0000    0.09350   0.39990   0.83387   Biso      1.000     C          0.645373  
         C19       1.0000    0.04970   0.45330   0.91943   Biso      1.000     C          -0.041733           
         C20       1.0000    0.30300   0.44820   0.91764   Biso      1.000     C          0.085349  
         C21       1.0000    0.58560   0.27240   0.46698   Biso      1.000     C          0.08340499999999999           
         C22       1.0000    0.09510   0.51930   0.04014   Biso      1.000     C          -0.159221           
         C23       1.0000    0.53940   0.38840   0.48709   Biso      1.000     C          0.056464  
         C24       1.0000    0.63000   0.44970   0.44842   Biso      1.000     C          -0.164751           
         C25       1.0000    0.55470   0.37290   0.93080   Biso      1.000     C          -0.107973           
         C26       1.0000    0.24800   0.62920   0.20360   Biso      1.000     C          0.596727  
         C27       1.0000    0.40480   0.59990   0.16120   Biso      1.000     C          -0.021096           
         C28       1.0000    0.44530   0.62710   0.06920   Biso      1.000     C          -0.10798800000000001          
         C29       1.0000    0.59520   0.40010   0.83880   Biso      1.000     C          -0.021093999999999998         
         C30       1.0000    0.59020   0.60210   0.03050   Biso      1.000     C          -0.139762           
         C31       1.0000    0.25820   0.05160   0.61660   Biso      1.000     C          0.5922930000000001  
         C32       1.0000    0.51090   0.54650   0.21340   Biso      1.000     C          -0.101025           
         C33       1.0000    0.65510   0.52430   0.17550   Biso      1.000     C          -0.148329           
         C34       1.0000    0.31520   0.94030   0.58250   Biso      1.000     C          -0.027298000000000003         
         C35       1.0000    0.69700   0.55180   0.08236   Biso      1.000     C          0.085345  
         C36       1.0000    0.85240   0.52770   0.04055   Biso      1.000     C          0.05758099999999999           
         C37       1.0000    0.90490   0.48070   0.95986   Biso      1.000     C          -0.159226           
         C38       1.0000    0.45900   0.87410   0.58050   Biso      1.000     C          -0.097187           
         C39       1.0000    0.95030   0.54670   0.08057   Biso      1.000     C          -0.041712           
         C40       1.0000    0.90650   0.60010   0.16613   Biso      1.000     C          0.645371  
         C41       1.0000    0.69710   0.61730   0.40770   Biso      1.000     C          0.650466  
         C42       1.0000    0.59370   0.55940   0.45945   Biso      1.000     C          -0.05329400000000001          
         C43       1.0000    0.75200   0.37080   0.79640   Biso      1.000     C          0.5967180000000001  
         C44       1.0000    0.14760   0.47230   0.95945   Biso      1.000     C          0.05758200000000001           
         H1        1.0000    0.51510   0.47490   0.72490   Biso      1.000     H          0.11116400000000001           
         H2        1.0000    0.27450   0.50950   0.78760   Biso      1.000     H          0.111088  
         H3        1.0000    0.82820   0.91820   0.21010   Biso      1.000     H          0.431093  
         H4        1.0000    0.28080   0.58470   0.58650   Biso      1.000     H          0.126412  
         H5        1.0000    0.20570   0.77030   0.51730   Biso      1.000     H          0.117147  
         H6        1.0000    0.60490   0.72520   0.55400   Biso      1.000     H          0.111988  
         H7        1.0000    0.52330   0.90050   0.59610   Biso      1.000     H          0.118698  
         H8        1.0000    0.98640   0.25550   0.74030   Biso      1.000     H          0.448067  
         H9        1.0000    0.07100   0.22450   0.65870   Biso      1.000     H          0.43698400000000004           
         H10       1.0000    0.15910   0.53270   0.06790   Biso      1.000     H          0.127408  
         H11       1.0000    0.12670   0.94570   0.55710   Biso      1.000     H          0.11837   
         H12       1.0000    0.17180   0.08180   0.78990   Biso      1.000     H          0.431093  
         H13       1.0000    0.62550   0.33730   0.96710   Biso      1.000     H          0.122127  
         H14       1.0000    0.37450   0.66270   0.03290   Biso      1.000     H          0.122119  
         H15       1.0000    0.61580   0.61970   0.96800   Biso      1.000     H          0.11844   
         H16       1.0000    0.48490   0.52510   0.27510   Biso      1.000     H          0.111168  
         H17       1.0000    0.72550   0.49050   0.21240   Biso      1.000     H          0.111095  
         H18       1.0000    0.84090   0.46730   0.93210   Biso      1.000     H          0.127397  
         H19       1.0000    0.71920   0.41530   0.41350   Biso      1.000     H          0.126422  
         H20       1.0000    0.79430   0.22970   0.48270   Biso      1.000     H          0.11713499999999999           
         H21       1.0000    0.38420   0.38030   0.03200   Biso      1.000     H          0.11845599999999999           
         H22       1.0000    0.39510   0.27480   0.44600   Biso      1.000     H          0.111981  
         H23       1.0000    0.47670   0.09950   0.40390   Biso      1.000     H          0.118693  
         H24       1.0000    0.87330   0.05430   0.44290   Biso      1.000     H          0.118362  
         H25       1.0000    0.26930   0.09470   0.83270   Biso      1.000     H          0.395586  
         H26       1.0000    0.73070   0.90530   0.16730   Biso      1.000     H          0.395595  
         H27       1.0000    0.92900   0.77550   0.34130   Biso      1.000     H          0.43697600000000003           
         H28       1.0000    0.01360   0.74450   0.25970   Biso      1.000     H          0.448064  
         Ni1       1.0000    0.98429   0.42223   0.65963   Biso      1.000     Ni          0.9518059999999999  
         Ni2       1.0000    0.73771   0.80245   0.26034   Biso      1.000     Ni          0.914176  
         Ni3       1.0000    0.26229   0.19755   0.73966   Biso      1.000     Ni          0.914223  
         Ni4       1.0000    0.01571   0.57777   0.34037   Biso      1.000     Ni          0.9517129999999999  
         O1        1.0000    0.66420   0.92624   0.34258   Biso      1.000     O          -0.586372           
         O2        1.0000    0.18880   0.08390   0.84151   Biso      1.000     O          -0.721428           
         O3        1.0000    0.97070   0.54418   0.22986   Biso      1.000     O          -0.533201           
         O4        1.0000    0.81250   0.69541   0.16506   Biso      1.000     O          -0.554991           
         O5        1.0000    0.06363   0.25703   0.70356   Biso      1.000     O          -0.8412440000000001           
         O6        1.0000    0.33580   0.07376   0.65742   Biso      1.000     O          -0.5863149999999999           
         O7        1.0000    0.13310   0.11208   0.60231   Biso      1.000     O          -0.5753060000000001           
         O8        1.0000    0.35010   0.29707   0.64398   Biso      1.000     O          -0.52253  
         O9        1.0000    0.17350   0.43017   0.58010   Biso      1.000     O          -0.609024           
         O10       1.0000    0.02930   0.45582   0.77014   Biso      1.000     O          -0.533163           
         O11       1.0000    0.18750   0.30459   0.83494   Biso      1.000     O          -0.554944           
         O12       1.0000    0.78200   0.43059   0.72475   Biso      1.000     O          -0.589699           
         O13       1.0000    0.84160   0.28945   0.83369   Biso      1.000     O          -0.548959           
         O14       1.0000    0.64990   0.70293   0.35602   Biso      1.000     O          -0.522572           
         O15       1.0000    0.21800   0.56941   0.27525   Biso      1.000     O          -0.589737           
         O16       1.0000    0.15840   0.71055   0.16631   Biso      1.000     O          -0.548995           
         O17       1.0000    0.81120   0.91610   0.15849   Biso      1.000     O          -0.721484           
         O18       1.0000    0.86690   0.88792   0.39769   Biso      1.000     O          -0.5753560000000001           
         O19       1.0000    0.93637   0.74297   0.29644   Biso      1.000     O          -0.8412430000000001           
         O20       1.0000    0.82650   0.56983   0.41990   Biso      1.000     O          -0.609069 