
##########################################################################
#               Crystallographic Information Format file
#               Produced by PyCifRW module
#
#  This is a CIF file.  CIF has been adopted by the International
#  Union of Crystallography as the standard for data archiving and
#  transmission.
#
#  For information on this file format, follow the CIF links at
#  http://www.iucr.org
##########################################################################

data_image0

_cell_length_a                          13.4377
_cell_length_b                          13.4377
_cell_length_c                          14.853
_cell_angle_alpha                       90
_cell_angle_beta                        90
_cell_angle_gamma                       120
_symmetry_space_group_name_H-M          'P 1'
_symmetry_int_tables_number             1
loop_
  _symmetry_equiv_pos_as_xyz
         'x, y, z' 
loop_
  _atom_site_label
  _atom_site_occupancy
  _atom_site_fract_x
  _atom_site_fract_y
  _atom_site_fract_z
  _atom_site_thermal_displace_type
  _atom_site_B_iso_or_equiv
  _atom_site_type_symbol
  _atom_site_charge
         C1        1.0000    0.11330   0.66510   0.63770   Biso      1.000     C          -0.247442           
         C2        1.0000    0.33490   0.44820   0.63770   Biso      1.000     C          -0.247441           
         C3        1.0000    0.25620   0.35200   0.49040   Biso      1.000     C          -0.227289           
         C4        1.0000    0.27170   0.45150   0.43240   Biso      1.000     C          0.645556  
         C5        1.0000    0.12190   0.56230   0.65700   Biso      1.000     C          0.68753   
         C6        1.0000    0.09580   0.74380   0.49040   Biso      1.000     C          -0.22729499999999997          
         C7        1.0000    0.17980   0.72830   0.43240   Biso      1.000     C          0.6455569999999999  
         C8        1.0000    0.44040   0.87810   0.65700   Biso      1.000     C          0.6875140000000001  
         C9        1.0000    0.55180   0.88670   0.63770   Biso      1.000     C          -0.247435           
         C10       1.0000    0.64800   0.90420   0.49040   Biso      1.000     C          -0.22729000000000002          
         C11       1.0000    0.43770   0.55960   0.65700   Biso      1.000     C          0.687516  
         C12       1.0000    0.54850   0.82020   0.43240   Biso      1.000     C          0.64556   
         C13       1.0000    0.88670   0.55180   0.86230   Biso      1.000     C          -0.247444           
         C14       1.0000    0.90420   0.64800   0.00960   Biso      1.000     C          -0.227298           
         C15       1.0000    0.82020   0.54850   0.06760   Biso      1.000     C          0.645559  
         C16       1.0000    0.55960   0.43770   0.84300   Biso      1.000     C          0.68753   
         C17       1.0000    0.44820   0.33490   0.86230   Biso      1.000     C          -0.24744000000000002          
         C18       1.0000    0.35200   0.25620   0.00960   Biso      1.000     C          -0.227292           
         C19       1.0000    0.45150   0.27170   0.06760   Biso      1.000     C          0.6455569999999999  
         C20       1.0000    0.56230   0.12190   0.84300   Biso      1.000     C          0.687512  
         C21       1.0000    0.66510   0.11330   0.86230   Biso      1.000     C          -0.247437           
         C22       1.0000    0.87810   0.44040   0.84300   Biso      1.000     C          0.687519  
         C23       1.0000    0.27170   0.82020   0.93240   Biso      1.000     C          0.645563  
         C24       1.0000    0.25620   0.90420   0.99040   Biso      1.000     C          -0.227298           
         C25       1.0000    0.33490   0.88670   0.13770   Biso      1.000     C          -0.24743600000000002          
         C26       1.0000    0.56230   0.44040   0.34300   Biso      1.000     C          0.687516  
         C27       1.0000    0.66510   0.55180   0.36230   Biso      1.000     C          -0.247441           
         C28       1.0000    0.74380   0.64800   0.50960   Biso      1.000     C          -0.22729000000000002          
         C29       1.0000    0.72830   0.54850   0.56760   Biso      1.000     C          0.6455569999999999  
         C30       1.0000    0.87810   0.43770   0.34300   Biso      1.000     C          0.68753   
         C31       1.0000    0.88670   0.33490   0.36230   Biso      1.000     C          -0.247442           
         C32       1.0000    0.90420   0.25620   0.50960   Biso      1.000     C          -0.227294           
         C33       1.0000    0.82020   0.27170   0.56760   Biso      1.000     C          0.645558  
         C34       1.0000    0.55960   0.12190   0.34300   Biso      1.000     C          0.687515  
         C35       1.0000    0.44820   0.11330   0.36230   Biso      1.000     C          -0.247435           
         C36       1.0000    0.35200   0.09580   0.50960   Biso      1.000     C          -0.227291           
         C37       1.0000    0.45150   0.17980   0.56760   Biso      1.000     C          0.64556   
         C38       1.0000    0.12190   0.55960   0.15700   Biso      1.000     C          0.687519  
         C39       1.0000    0.11330   0.44820   0.13770   Biso      1.000     C          -0.247444           
         C40       1.0000    0.09580   0.35200   0.99040   Biso      1.000     C          -0.227298           
         C41       1.0000    0.17980   0.45150   0.93240   Biso      1.000     C          0.645559  
         C42       1.0000    0.44040   0.56230   0.15700   Biso      1.000     C          0.68753   
         C43       1.0000    0.55180   0.66510   0.13770   Biso      1.000     C          -0.24744000000000002          
         C44       1.0000    0.64800   0.74380   0.99040   Biso      1.000     C          -0.227292           
         C45       1.0000    0.54850   0.72830   0.93240   Biso      1.000     C          0.645556  
         C46       1.0000    0.43770   0.87810   0.15700   Biso      1.000     C          0.687511  
         C47       1.0000    0.74380   0.09580   0.00960   Biso      1.000     C          -0.227298           
         C48       1.0000    0.72830   0.17980   0.06760   Biso      1.000     C          0.645564  
         Ce1       1.0000    0.66667   0.33334   0.16922   Biso      1.000     Ce          2.040765  
         Ce2       1.0000    0.33333   0.66666   0.33078   Biso      1.000     Ce          2.0407610000000003  
         Ce3       1.0000    0.33333   0.66666   0.83078   Biso      1.000     Ce          2.040763  
         Ce4       1.0000    0.66667   0.33334   0.66922   Biso      1.000     Ce          2.0407669999999998  
         Cu1       1.0000    0.50000   0.50000   0.00000   Biso      1.000     Cu          0.775758  
         Cu2       1.0000    0.00000   0.50000   0.50000   Biso      1.000     Cu          0.77576   
         Cu3       1.0000    0.50000   0.00000   0.50000   Biso      1.000     Cu          0.775663  
         Cu4       1.0000    0.50000   0.50000   0.50000   Biso      1.000     Cu          0.775725  
         Cu5       1.0000    0.50000   0.00000   0.00000   Biso      1.000     Cu          0.7757069999999999  
         Cu6       1.0000    0.00000   0.50000   0.00000   Biso      1.000     Cu          0.775698  
         H1        1.0000    0.13630   0.81730   0.52100   Biso      1.000     H          0.126948  
         H2        1.0000    0.96240   0.70690   0.04770   Biso      1.000     H          0.141817  
         H3        1.0000    0.97390   0.64780   0.57710   Biso      1.000     H          0.259484  
         H4        1.0000    0.60100   0.91800   0.69000   Biso      1.000     H          0.147403  
         H5        1.0000    0.53980   0.81020   0.62720   Biso      1.000     H          0.15094200000000002           
         H6        1.0000    0.70690   0.96240   0.45230   Biso      1.000     H          0.141801  
         H7        1.0000    0.68100   0.86370   0.52100   Biso      1.000     H          0.126923  
         H8        1.0000    0.67390   0.02610   0.57710   Biso      1.000     H          0.259464  
         H9        1.0000    0.91800   0.60100   0.81000   Biso      1.000     H          0.14741400000000002           
         H10       1.0000    0.81020   0.53980   0.87280   Biso      1.000     H          0.15095   
         H11       1.0000    0.86370   0.68100   0.97900   Biso      1.000     H          0.12693800000000002           
         H12       1.0000    0.31900   0.18270   0.97900   Biso      1.000     H          0.126943  
         H13       1.0000    0.39900   0.31700   0.81000   Biso      1.000     H          0.147421  
         H14       1.0000    0.46020   0.27040   0.87280   Biso      1.000     H          0.150956  
         H15       1.0000    0.29310   0.25550   0.04770   Biso      1.000     H          0.141812  
         H16       1.0000    0.03760   0.74450   0.45230   Biso      1.000     H          0.141812  
         H17       1.0000    0.32610   0.35220   0.92290   Biso      1.000     H          0.25947800000000004           
         H18       1.0000    0.68300   0.08200   0.81000   Biso      1.000     H          0.147419  
         H19       1.0000    0.72960   0.18980   0.87280   Biso      1.000     H          0.150949  
         H20       1.0000    0.74450   0.03760   0.04770   Biso      1.000     H          0.141812  
         H21       1.0000    0.81730   0.13630   0.97900   Biso      1.000     H          0.126937  
         H22       1.0000    0.64780   0.97390   0.92290   Biso      1.000     H          0.259481  
         H23       1.0000    0.53980   0.72960   0.12720   Biso      1.000     H          0.150956  
         H24       1.0000    0.02610   0.67390   0.92290   Biso      1.000     H          0.25947600000000004           
         H25       1.0000    0.18980   0.72960   0.62720   Biso      1.000     H          0.15096700000000002           
         H26       1.0000    0.60100   0.68300   0.19000   Biso      1.000     H          0.14742   
         H27       1.0000    0.35220   0.32610   0.57710   Biso      1.000     H          0.259483  
         H28       1.0000    0.81020   0.27040   0.37280   Biso      1.000     H          0.15096700000000002           
         H29       1.0000    0.96240   0.25550   0.54770   Biso      1.000     H          0.141811  
         H30       1.0000    0.86370   0.18270   0.47900   Biso      1.000     H          0.126948  
         H31       1.0000    0.02610   0.35220   0.42290   Biso      1.000     H          0.259484  
         H32       1.0000    0.39900   0.08200   0.31000   Biso      1.000     H          0.147404  
         H33       1.0000    0.46020   0.18980   0.37280   Biso      1.000     H          0.15094200000000002           
         H34       1.0000    0.64780   0.67390   0.42290   Biso      1.000     H          0.259483  
         H35       1.0000    0.29310   0.03760   0.54770   Biso      1.000     H          0.141802  
         H36       1.0000    0.32610   0.97390   0.42290   Biso      1.000     H          0.259464  
         H37       1.0000    0.08200   0.39900   0.19000   Biso      1.000     H          0.14741300000000002           
         H38       1.0000    0.18980   0.46020   0.12720   Biso      1.000     H          0.15095   
         H39       1.0000    0.03760   0.29310   0.95230   Biso      1.000     H          0.141816  
         H40       1.0000    0.13630   0.31900   0.02100   Biso      1.000     H          0.12693800000000002           
         H41       1.0000    0.97390   0.32610   0.07710   Biso      1.000     H          0.25947600000000004           
         H42       1.0000    0.31900   0.13630   0.47900   Biso      1.000     H          0.126924  
         H43       1.0000    0.81730   0.68100   0.47900   Biso      1.000     H          0.126935  
         H44       1.0000    0.91800   0.31700   0.31000   Biso      1.000     H          0.147423  
         H45       1.0000    0.72960   0.53980   0.37280   Biso      1.000     H          0.150947  
         H46       1.0000    0.18270   0.31900   0.52100   Biso      1.000     H          0.126932  
         H47       1.0000    0.25550   0.29310   0.45230   Biso      1.000     H          0.141811  
         H48       1.0000    0.27040   0.46020   0.62720   Biso      1.000     H          0.150947  
         H49       1.0000    0.08200   0.68300   0.69000   Biso      1.000     H          0.147423  
         H50       1.0000    0.31700   0.39900   0.69000   Biso      1.000     H          0.147412  
         H51       1.0000    0.74450   0.70690   0.54770   Biso      1.000     H          0.14181400000000002           
         H52       1.0000    0.18270   0.86370   0.02100   Biso      1.000     H          0.126936  
         H53       1.0000    0.35220   0.02610   0.07710   Biso      1.000     H          0.259481  
         H54       1.0000    0.27040   0.81020   0.12720   Biso      1.000     H          0.150949  
         H55       1.0000    0.31700   0.91800   0.19000   Biso      1.000     H          0.147418  
         H56       1.0000    0.67390   0.64780   0.07710   Biso      1.000     H          0.25947800000000004           
         H57       1.0000    0.68100   0.81730   0.02100   Biso      1.000     H          0.126943  
         H58       1.0000    0.70690   0.74450   0.95230   Biso      1.000     H          0.141811  
         H59       1.0000    0.68300   0.60100   0.31000   Biso      1.000     H          0.147412  
         H60       1.0000    0.25550   0.96240   0.95230   Biso      1.000     H          0.14181   
         N1        1.0000    0.61120   0.65100   0.05790   Biso      1.000     N          -0.288031           
         N2        1.0000    0.65100   0.61120   0.44210   Biso      1.000     N          -0.288022           
         N3        1.0000    0.96020   0.34900   0.44210   Biso      1.000     N          -0.288015           
         N4        1.0000    0.38880   0.03980   0.44210   Biso      1.000     N          -0.288055           
         N5        1.0000    0.03980   0.38880   0.05790   Biso      1.000     N          -0.288025           
         N6        1.0000    0.34900   0.96020   0.05790   Biso      1.000     N          -0.28803  
         N7        1.0000    0.65100   0.03980   0.94210   Biso      1.000     N          -0.288029           
         N8        1.0000    0.03980   0.65100   0.55790   Biso      1.000     N          -0.288016           
         N9        1.0000    0.61120   0.96020   0.55790   Biso      1.000     N          -0.288055           
         N10       1.0000    0.96020   0.61120   0.94210   Biso      1.000     N          -0.288025           
         N11       1.0000    0.38880   0.34900   0.94210   Biso      1.000     N          -0.288031           
         N12       1.0000    0.34900   0.38880   0.55790   Biso      1.000     N          -0.288022           
         O1        1.0000    0.19730   0.75920   0.87570   Biso      1.000     O          -0.61626  
         O2        1.0000    0.43610   0.82210   0.22460   Biso      1.000     O          -0.656932           
         O3        1.0000    0.52360   0.92620   0.10540   Biso      1.000     O          -0.529998           
         O4        1.0000    0.45270   0.63730   0.94280   Biso      1.000     O          -0.661866           
         O5        1.0000    0.56190   0.80270   0.87570   Biso      1.000     O          -0.616229           
         O6        1.0000    0.38600   0.56390   0.22460   Biso      1.000     O          -0.656929           
         O7        1.0000    0.40260   0.47640   0.10540   Biso      1.000     O          -0.529985           
         O8        1.0000    0.18460   0.54730   0.94280   Biso      1.000     O          -0.661862           
         O9        1.0000    0.24080   0.43810   0.87570   Biso      1.000     O          -0.616243           
         O10       1.0000    0.17790   0.61400   0.22460   Biso      1.000     O          -0.656938           
         O11       1.0000    0.43810   0.24080   0.62430   Biso      1.000     O          -0.616274           
         O12       1.0000    0.54730   0.18460   0.55720   Biso      1.000     O          -0.661827           
         O13       1.0000    0.61400   0.17790   0.27540   Biso      1.000     O          -0.6569560000000001           
         O14       1.0000    0.59740   0.07380   0.39460   Biso      1.000     O          -0.530026           
         O15       1.0000    0.81540   0.36270   0.55720   Biso      1.000     O          -0.661874           
         O16       1.0000    0.75920   0.19730   0.62430   Biso      1.000     O          -0.616221           
         O17       1.0000    0.82210   0.43610   0.27540   Biso      1.000     O          -0.65691  
         O18       1.0000    0.92620   0.52360   0.39460   Biso      1.000     O          -0.529962           
         O19       1.0000    0.63730   0.45270   0.55720   Biso      1.000     O          -0.6618470000000001           
         O20       1.0000    0.80270   0.56190   0.62430   Biso      1.000     O          -0.616246           
         O21       1.0000    0.36270   0.81540   0.94280   Biso      1.000     O          -0.66182  
         O22       1.0000    0.07380   0.59740   0.10540   Biso      1.000     O          -0.529982           
         O23       1.0000    0.52360   0.59740   0.60540   Biso      1.000     O          -0.52999  
         O24       1.0000    0.63730   0.18460   0.05720   Biso      1.000     O          -0.66182  
         O25       1.0000    0.19730   0.43810   0.37570   Biso      1.000     O          -0.616247           
         O26       1.0000    0.56390   0.38600   0.27540   Biso      1.000     O          -0.656957           
         O27       1.0000    0.80270   0.24080   0.12430   Biso      1.000     O          -0.616259           
         O28       1.0000    0.56390   0.17790   0.77540   Biso      1.000     O          -0.656933           
         O29       1.0000    0.47640   0.07380   0.89460   Biso      1.000     O          -0.529997           
         O30       1.0000    0.54730   0.36270   0.05720   Biso      1.000     O          -0.661866           
         O31       1.0000    0.43810   0.19730   0.12430   Biso      1.000     O          -0.616228           
         O32       1.0000    0.61400   0.43610   0.77540   Biso      1.000     O          -0.65693  
         O33       1.0000    0.59740   0.52360   0.89460   Biso      1.000     O          -0.529984           
         O34       1.0000    0.81540   0.45270   0.05720   Biso      1.000     O          -0.661862           
         O35       1.0000    0.75920   0.56190   0.12430   Biso      1.000     O          -0.616242           
         O36       1.0000    0.82210   0.38600   0.77540   Biso      1.000     O          -0.656939           
         O37       1.0000    0.92620   0.40260   0.89460   Biso      1.000     O          -0.529981           
         O38       1.0000    0.45270   0.81540   0.44280   Biso      1.000     O          -0.661827           
         O39       1.0000    0.56190   0.75920   0.37570   Biso      1.000     O          -0.616275           
         O40       1.0000    0.38600   0.82210   0.72460   Biso      1.000     O          -0.6569560000000001           
         O41       1.0000    0.40260   0.92620   0.60540   Biso      1.000     O          -0.530026           
         O42       1.0000    0.18460   0.63730   0.44280   Biso      1.000     O          -0.6618729999999999           
         O43       1.0000    0.24080   0.80270   0.37570   Biso      1.000     O          -0.616222           
         O44       1.0000    0.17790   0.56390   0.72460   Biso      1.000     O          -0.65691  
         O45       1.0000    0.07380   0.47640   0.60540   Biso      1.000     O          -0.529962           
         O46       1.0000    0.36270   0.54730   0.44280   Biso      1.000     O          -0.661848           
         O47       1.0000    0.43610   0.61400   0.72460   Biso      1.000     O          -0.656957           
         O48       1.0000    0.47640   0.40260   0.39460   Biso      1.000     O          -0.52999 