
##########################################################################
#               Crystallographic Information Format file
#               Produced by PyCifRW module
#
#  This is a CIF file.  CIF has been adopted by the International
#  Union of Crystallography as the standard for data archiving and
#  transmission.
#
#  For information on this file format, follow the CIF links at
#  http://www.iucr.org
##########################################################################

data_image0

_cell_length_a                          13.3238
_cell_length_b                          13.3238
_cell_length_c                          14.3368
_cell_angle_alpha                       90
_cell_angle_beta                        90
_cell_angle_gamma                       120
_symmetry_space_group_name_H-M          'P 1'
_symmetry_int_tables_number             1
loop_
  _symmetry_equiv_pos_as_xyz
         'x, y, z' 
loop_
  _atom_site_label
  _atom_site_occupancy
  _atom_site_fract_x
  _atom_site_fract_y
  _atom_site_fract_z
  _atom_site_thermal_displace_type
  _atom_site_B_iso_or_equiv
  _atom_site_type_symbol
  _atom_site_charge
         C1        1.0000    0.11690   0.66820   0.64040   Biso      1.000     C          -0.245094           
         C2        1.0000    0.73160   0.54660   0.56970   Biso      1.000     C          0.64853   
         C3        1.0000    0.09960   0.74650   0.48880   Biso      1.000     C          -0.22802399999999998          
         C4        1.0000    0.18500   0.73160   0.43030   Biso      1.000     C          0.648533  
         C5        1.0000    0.43680   0.87380   0.66070   Biso      1.000     C          0.692562  
         C6        1.0000    0.55130   0.88310   0.64040   Biso      1.000     C          -0.24509299999999998          
         C7        1.0000    0.64690   0.90040   0.48880   Biso      1.000     C          -0.22802600000000003          
         C8        1.0000    0.54660   0.81500   0.43030   Biso      1.000     C          0.648536  
         C9        1.0000    0.87380   0.43680   0.83930   Biso      1.000     C          0.692569  
         C10       1.0000    0.12620   0.56300   0.66070   Biso      1.000     C          0.6925720000000001  
         C11       1.0000    0.88310   0.55130   0.85960   Biso      1.000     C          -0.24509699999999998          
         C12       1.0000    0.81500   0.54660   0.06970   Biso      1.000     C          0.6485310000000001  
         C13       1.0000    0.56320   0.43700   0.83930   Biso      1.000     C          0.692573  
         C14       1.0000    0.44870   0.33180   0.85960   Biso      1.000     C          -0.245094           
         C15       1.0000    0.35310   0.25350   0.01120   Biso      1.000     C          -0.22802600000000003          
         C16       1.0000    0.45340   0.26840   0.06970   Biso      1.000     C          0.6485310000000001  
         C17       1.0000    0.56300   0.12620   0.83930   Biso      1.000     C          0.6925600000000001  
         C18       1.0000    0.66820   0.11690   0.85960   Biso      1.000     C          -0.24509  
         C19       1.0000    0.74650   0.09960   0.01120   Biso      1.000     C          -0.228027           
         C20       1.0000    0.90040   0.64690   0.01120   Biso      1.000     C          -0.22802600000000003          
         C21       1.0000    0.26840   0.45340   0.43030   Biso      1.000     C          0.6485310000000001  
         C22       1.0000    0.25350   0.35310   0.48880   Biso      1.000     C          -0.228025           
         C23       1.0000    0.33180   0.44870   0.64040   Biso      1.000     C          -0.24509499999999998          
         C24       1.0000    0.90040   0.25350   0.51120   Biso      1.000     C          -0.22802600000000003          
         C25       1.0000    0.81500   0.26840   0.56970   Biso      1.000     C          0.648532  
         C26       1.0000    0.56320   0.12620   0.33930   Biso      1.000     C          0.692562  
         C27       1.0000    0.44870   0.11690   0.35960   Biso      1.000     C          -0.24509  
         C28       1.0000    0.35310   0.09960   0.51120   Biso      1.000     C          -0.22802600000000003          
         C29       1.0000    0.45340   0.18500   0.56970   Biso      1.000     C          0.648537  
         C30       1.0000    0.12620   0.56320   0.16070   Biso      1.000     C          0.69257   
         C31       1.0000    0.11690   0.44870   0.14040   Biso      1.000     C          -0.24509699999999998          
         C32       1.0000    0.09960   0.35310   0.98880   Biso      1.000     C          -0.22802600000000003          
         C33       1.0000    0.18500   0.45340   0.93030   Biso      1.000     C          0.648532  
         C34       1.0000    0.43680   0.56300   0.16070   Biso      1.000     C          0.692574  
         C35       1.0000    0.55130   0.66820   0.14040   Biso      1.000     C          -0.245094           
         C36       1.0000    0.64690   0.74650   0.98880   Biso      1.000     C          -0.228027           
         C37       1.0000    0.54660   0.73160   0.93030   Biso      1.000     C          0.648532  
         C38       1.0000    0.43700   0.87380   0.16070   Biso      1.000     C          0.692562  
         C39       1.0000    0.33180   0.88310   0.14040   Biso      1.000     C          -0.245088           
         C40       1.0000    0.25350   0.90040   0.98880   Biso      1.000     C          -0.22802600000000003          
         C41       1.0000    0.26840   0.81500   0.93030   Biso      1.000     C          0.6485380000000001  
         C42       1.0000    0.43700   0.56320   0.66070   Biso      1.000     C          0.6925720000000001  
         C43       1.0000    0.73160   0.18500   0.06970   Biso      1.000     C          0.6485350000000001  
         C44       1.0000    0.88310   0.33180   0.35960   Biso      1.000     C          -0.245092           
         C45       1.0000    0.87380   0.43700   0.33930   Biso      1.000     C          0.692571  
         C46       1.0000    0.56300   0.43680   0.33930   Biso      1.000     C          0.692571  
         C47       1.0000    0.66820   0.55130   0.35960   Biso      1.000     C          -0.245094           
         C48       1.0000    0.74650   0.64690   0.51120   Biso      1.000     C          -0.22802600000000003          
         Cu1       1.0000    0.50000   0.00000   0.00000   Biso      1.000     Cu          0.782574  
         Cu2       1.0000    0.50000   0.50000   0.00000   Biso      1.000     Cu          0.782566  
         Cu3       1.0000    0.00000   0.50000   0.00000   Biso      1.000     Cu          0.782564  
         Cu4       1.0000    0.50000   0.00000   0.50000   Biso      1.000     Cu          0.782573  
         Cu5       1.0000    0.00000   0.50000   0.50000   Biso      1.000     Cu          0.782568  
         Cu6       1.0000    0.50000   0.50000   0.50000   Biso      1.000     Cu          0.782565  
         H1        1.0000    0.67300   0.65000   0.07900   Biso      1.000     H          0.257886  
         H2        1.0000    0.91490   0.60110   0.80550   Biso      1.000     H          0.147197  
         H3        1.0000    0.80620   0.53970   0.87090   Biso      1.000     H          0.148559  
         H4        1.0000    0.67300   0.02300   0.57900   Biso      1.000     H          0.257885  
         H5        1.0000    0.68110   0.86050   0.52060   Biso      1.000     H          0.127684  
         H6        1.0000    0.13950   0.82060   0.52060   Biso      1.000     H          0.12767699999999998           
         H7        1.0000    0.60110   0.91490   0.69450   Biso      1.000     H          0.147207  
         H8        1.0000    0.53970   0.80620   0.62910   Biso      1.000     H          0.148562  
         H9        1.0000    0.97700   0.65000   0.57900   Biso      1.000     H          0.257882  
         H10       1.0000    0.95900   0.70550   0.05130   Biso      1.000     H          0.14214100000000002           
         H11       1.0000    0.70550   0.95900   0.44870   Biso      1.000     H          0.14215   
         H12       1.0000    0.86050   0.68110   0.97940   Biso      1.000     H          0.12768   
         H13       1.0000    0.31890   0.17940   0.97940   Biso      1.000     H          0.127686  
         H14       1.0000    0.46030   0.26650   0.87090   Biso      1.000     H          0.148567  
         H15       1.0000    0.39890   0.31380   0.80550   Biso      1.000     H          0.147205  
         H16       1.0000    0.29450   0.25350   0.05130   Biso      1.000     H          0.142145  
         H17       1.0000    0.04100   0.74650   0.44870   Biso      1.000     H          0.14213499999999998           
         H18       1.0000    0.32700   0.35000   0.92100   Biso      1.000     H          0.257885  
         H19       1.0000    0.73350   0.19380   0.87090   Biso      1.000     H          0.148562  
         H20       1.0000    0.68620   0.08510   0.80550   Biso      1.000     H          0.147201  
         H21       1.0000    0.74650   0.04100   0.05130   Biso      1.000     H          0.142145  
         H22       1.0000    0.82060   0.13950   0.97940   Biso      1.000     H          0.127683  
         H23       1.0000    0.65000   0.97700   0.92100   Biso      1.000     H          0.257884  
         H24       1.0000    0.02300   0.67300   0.92100   Biso      1.000     H          0.257883  
         H25       1.0000    0.26650   0.80620   0.12910   Biso      1.000     H          0.148562  
         H26       1.0000    0.08510   0.68620   0.69450   Biso      1.000     H          0.1472    
         H27       1.0000    0.35000   0.32700   0.57900   Biso      1.000     H          0.257886  
         H28       1.0000    0.68110   0.82060   0.02060   Biso      1.000     H          0.127689  
         H29       1.0000    0.70550   0.74650   0.94870   Biso      1.000     H          0.142156  
         H30       1.0000    0.60110   0.68620   0.19450   Biso      1.000     H          0.14720999999999998           
         H31       1.0000    0.53970   0.73350   0.12910   Biso      1.000     H          0.148567  
         H32       1.0000    0.97700   0.32700   0.07900   Biso      1.000     H          0.257884  
         H33       1.0000    0.13950   0.31890   0.02060   Biso      1.000     H          0.127679  
         H34       1.0000    0.04100   0.29450   0.94870   Biso      1.000     H          0.142146  
         H35       1.0000    0.08510   0.39890   0.19450   Biso      1.000     H          0.1472    
         H36       1.0000    0.19380   0.46030   0.12910   Biso      1.000     H          0.148559  
         H37       1.0000    0.32700   0.97700   0.42100   Biso      1.000     H          0.257883  
         H38       1.0000    0.31380   0.91490   0.19450   Biso      1.000     H          0.147202  
         H39       1.0000    0.29450   0.04100   0.55130   Biso      1.000     H          0.14214300000000002           
         H40       1.0000    0.39890   0.08510   0.30550   Biso      1.000     H          0.147201  
         H41       1.0000    0.46030   0.19380   0.37090   Biso      1.000     H          0.148561  
         H42       1.0000    0.02300   0.35000   0.42100   Biso      1.000     H          0.25788   
         H43       1.0000    0.86050   0.17940   0.47940   Biso      1.000     H          0.127676  
         H44       1.0000    0.95900   0.25350   0.55130   Biso      1.000     H          0.14213599999999998           
         H45       1.0000    0.17940   0.31890   0.52060   Biso      1.000     H          0.127685  
         H46       1.0000    0.25350   0.29450   0.44870   Biso      1.000     H          0.142146  
         H47       1.0000    0.31380   0.39890   0.69450   Biso      1.000     H          0.147204  
         H48       1.0000    0.26650   0.46030   0.62910   Biso      1.000     H          0.148564  
         H49       1.0000    0.35000   0.02300   0.07900   Biso      1.000     H          0.257884  
         H50       1.0000    0.17940   0.86050   0.02060   Biso      1.000     H          0.12768   
         H51       1.0000    0.19380   0.73350   0.62910   Biso      1.000     H          0.148562  
         H52       1.0000    0.25350   0.95900   0.94870   Biso      1.000     H          0.142146  
         H53       1.0000    0.68620   0.60110   0.30550   Biso      1.000     H          0.147201  
         H54       1.0000    0.74650   0.70550   0.55130   Biso      1.000     H          0.142145  
         H55       1.0000    0.82060   0.68110   0.47940   Biso      1.000     H          0.127683  
         H56       1.0000    0.65000   0.67300   0.42100   Biso      1.000     H          0.257884  
         H57       1.0000    0.80620   0.26650   0.37090   Biso      1.000     H          0.148562  
         H58       1.0000    0.91490   0.31380   0.30550   Biso      1.000     H          0.147198  
         H59       1.0000    0.73350   0.53970   0.37090   Biso      1.000     H          0.148564  
         H60       1.0000    0.31890   0.13950   0.47940   Biso      1.000     H          0.12767799999999999           
         Ho1       1.0000    0.66667   0.33334   0.16734   Biso      1.000     Ho          2.076346  
         Ho2       1.0000    0.66667   0.33334   0.66734   Biso      1.000     Ho          2.0763409999999998  
         Ho3       1.0000    0.33333   0.66666   0.83266   Biso      1.000     Ho          2.076349  
         Ho4       1.0000    0.33333   0.66666   0.33266   Biso      1.000     Ho          2.07635   
         N1        1.0000    0.65240   0.60950   0.44120   Biso      1.000     N          -0.284509           
         N2        1.0000    0.95710   0.34760   0.44120   Biso      1.000     N          -0.28451  
         N3        1.0000    0.04290   0.39050   0.05880   Biso      1.000     N          -0.284507           
         N4        1.0000    0.60950   0.65240   0.05880   Biso      1.000     N          -0.284507           
         N5        1.0000    0.34760   0.95710   0.05880   Biso      1.000     N          -0.284508           
         N6        1.0000    0.39050   0.04290   0.44120   Biso      1.000     N          -0.284506           
         N7        1.0000    0.04290   0.65240   0.55880   Biso      1.000     N          -0.28451  
         N8        1.0000    0.60950   0.95710   0.55880   Biso      1.000     N          -0.284505           
         N9        1.0000    0.95710   0.60950   0.94120   Biso      1.000     N          -0.284508           
         N10       1.0000    0.39050   0.34760   0.94120   Biso      1.000     N          -0.284509           
         N11       1.0000    0.65240   0.04290   0.94120   Biso      1.000     N          -0.284509           
         N12       1.0000    0.34760   0.39050   0.55880   Biso      1.000     N          -0.284507           
         O1        1.0000    0.24610   0.43930   0.87180   Biso      1.000     O          -0.612859           
         O2        1.0000    0.19320   0.75390   0.87180   Biso      1.000     O          -0.612861           
         O3        1.0000    0.43440   0.81480   0.22940   Biso      1.000     O          -0.6719930000000001           
         O4        1.0000    0.52420   0.92620   0.10890   Biso      1.000     O          -0.524263           
         O5        1.0000    0.44990   0.63940   0.94060   Biso      1.000     O          -0.6812189999999999           
         O6        1.0000    0.56070   0.80680   0.87180   Biso      1.000     O          -0.612845           
         O7        1.0000    0.38040   0.56560   0.22940   Biso      1.000     O          -0.6720079999999999           
         O8        1.0000    0.40200   0.47580   0.10890   Biso      1.000     O          -0.524256           
         O9        1.0000    0.18950   0.55010   0.94060   Biso      1.000     O          -0.681208           
         O10       1.0000    0.18520   0.61960   0.22940   Biso      1.000     O          -0.672014           
         O11       1.0000    0.81480   0.43440   0.27060   Biso      1.000     O          -0.672018           
         O12       1.0000    0.55010   0.18950   0.55940   Biso      1.000     O          -0.681237           
         O13       1.0000    0.43930   0.24610   0.62820   Biso      1.000     O          -0.61287  
         O14       1.0000    0.61960   0.18520   0.27060   Biso      1.000     O          -0.671992           
         O15       1.0000    0.59800   0.07380   0.39110   Biso      1.000     O          -0.524262           
         O16       1.0000    0.81050   0.36060   0.55940   Biso      1.000     O          -0.681227           
         O17       1.0000    0.75390   0.19320   0.62820   Biso      1.000     O          -0.612861           
         O18       1.0000    0.36060   0.81050   0.94060   Biso      1.000     O          -0.681239           
         O19       1.0000    0.92620   0.52420   0.39110   Biso      1.000     O          -0.524266           
         O20       1.0000    0.63940   0.44990   0.55940   Biso      1.000     O          -0.681211           
         O21       1.0000    0.80680   0.56070   0.62820   Biso      1.000     O          -0.612858           
         O22       1.0000    0.07380   0.59800   0.10890   Biso      1.000     O          -0.524263           
         O23       1.0000    0.52420   0.59800   0.60890   Biso      1.000     O          -0.5242600000000001           
         O24       1.0000    0.18950   0.63940   0.44060   Biso      1.000     O          -0.681228           
         O25       1.0000    0.19320   0.43930   0.37180   Biso      1.000     O          -0.612853           
         O26       1.0000    0.63940   0.18950   0.05940   Biso      1.000     O          -0.681237           
         O27       1.0000    0.80680   0.24610   0.12820   Biso      1.000     O          -0.612861           
         O28       1.0000    0.56560   0.18520   0.77060   Biso      1.000     O          -0.671991           
         O29       1.0000    0.47580   0.07380   0.89110   Biso      1.000     O          -0.5242640000000001           
         O30       1.0000    0.55010   0.36060   0.05940   Biso      1.000     O          -0.681222           
         O31       1.0000    0.43930   0.19320   0.12820   Biso      1.000     O          -0.612848           
         O32       1.0000    0.61960   0.43440   0.77060   Biso      1.000     O          -0.672009           
         O33       1.0000    0.59800   0.52420   0.89110   Biso      1.000     O          -0.524262           
         O34       1.0000    0.81050   0.44990   0.05940   Biso      1.000     O          -0.681207           
         O35       1.0000    0.75390   0.56070   0.12820   Biso      1.000     O          -0.612862           
         O36       1.0000    0.81480   0.38040   0.77060   Biso      1.000     O          -0.672013           
         O37       1.0000    0.92620   0.40200   0.89110   Biso      1.000     O          -0.524266           
         O38       1.0000    0.44990   0.81050   0.44060   Biso      1.000     O          -0.681233           
         O39       1.0000    0.56070   0.75390   0.37180   Biso      1.000     O          -0.612862           
         O40       1.0000    0.38040   0.81480   0.72940   Biso      1.000     O          -0.671991           
         O41       1.0000    0.40200   0.92620   0.60890   Biso      1.000     O          -0.524257           
         O42       1.0000    0.56560   0.38040   0.27060   Biso      1.000     O          -0.67201  
         O43       1.0000    0.24610   0.80680   0.37180   Biso      1.000     O          -0.612857           
         O44       1.0000    0.18520   0.56560   0.72940   Biso      1.000     O          -0.6720189999999999           
         O45       1.0000    0.07380   0.47580   0.60890   Biso      1.000     O          -0.5242640000000001           
         O46       1.0000    0.36060   0.55010   0.44060   Biso      1.000     O          -0.681211           
         O47       1.0000    0.43440   0.61960   0.72940   Biso      1.000     O          -0.6720109999999999           
         O48       1.0000    0.47580   0.40200   0.39110   Biso      1.000     O          -0.524261 