
##########################################################################
#               Crystallographic Information Format file
#               Produced by PyCifRW module
#
#  This is a CIF file.  CIF has been adopted by the International
#  Union of Crystallography as the standard for data archiving and
#  transmission.
#
#  For information on this file format, follow the CIF links at
#  http://www.iucr.org
##########################################################################

data_image0

_cell_length_a                          21.8947
_cell_length_b                          8.3062
_cell_length_c                          23.2034
_cell_angle_alpha                       90
_cell_angle_beta                        100.053
_cell_angle_gamma                       90
_symmetry_space_group_name_H-M          'P 1'
_symmetry_int_tables_number             1
loop_
  _symmetry_equiv_pos_as_xyz
         'x, y, z' 
loop_
  _atom_site_label
  _atom_site_occupancy
  _atom_site_fract_x
  _atom_site_fract_y
  _atom_site_fract_z
  _atom_site_thermal_displace_type
  _atom_site_B_iso_or_equiv
  _atom_site_type_symbol
  _atom_site_charge
         C1        1.0000    0.17100   0.21600   0.17680   Biso      1.000     C          0.652105  
         C2        1.0000    0.21690   0.05440   0.00500   Biso      1.000     C          0.158254  
         C3        1.0000    0.23720   0.99870   0.06140   Biso      1.000     C          -0.142216           
         C4        1.0000    0.62250   0.56120   0.67870   Biso      1.000     C          0.395129  
         C5        1.0000    0.57880   0.67010   0.64920   Biso      1.000     C          -0.213729           
         C6        1.0000    0.54390   0.63810   0.59580   Biso      1.000     C          -0.106295           
         C7        1.0000    0.55060   0.49020   0.56840   Biso      1.000     C          0.148526  
         C8        1.0000    0.17640   0.95790   0.96680   Biso      1.000     C          -0.122208           
         C9        1.0000    0.82900   0.78400   0.82320   Biso      1.000     C          0.652105  
         C10       1.0000    0.90820   0.88020   0.90330   Biso      1.000     C          -0.140787           
         C11       1.0000    0.94940   0.99020   0.93160   Biso      1.000     C          0.148524  
         C12       1.0000    0.95610   0.13810   0.90420   Biso      1.000     C          -0.1063   
         C13       1.0000    0.92120   0.17010   0.85080   Biso      1.000     C          -0.213723           
         C14       1.0000    0.87750   0.06120   0.82130   Biso      1.000     C          0.395129  
         C15       1.0000    0.74000   0.70270   0.64180   Biso      1.000     C          0.698407  
         C16       1.0000    0.87210   0.91280   0.84860   Biso      1.000     C          -0.185674           
         C17       1.0000    0.71920   0.64910   0.57960   Biso      1.000     C          -0.185531           
         C18       1.0000    0.15780   0.81110   0.98360   Biso      1.000     C          -0.20504  
         C19       1.0000    0.21920   0.85090   0.07960   Biso      1.000     C          -0.185529           
         C20       1.0000    0.71690   0.55440   0.00500   Biso      1.000     C          0.158253  
         C21       1.0000    0.73720   0.49870   0.06140   Biso      1.000     C          -0.142217           
         C22       1.0000    0.82360   0.04210   0.03320   Biso      1.000     C          -0.122211           
         C23       1.0000    0.84220   0.18890   0.01640   Biso      1.000     C          -0.20504  
         C24       1.0000    0.82100   0.24630   0.96020   Biso      1.000     C          0.337261  
         C25       1.0000    0.78080   0.14910   0.92040   Biso      1.000     C          -0.185531           
         C26       1.0000    0.17900   0.75370   0.03980   Biso      1.000     C          0.337261  
         C27       1.0000    0.76000   0.20270   0.85820   Biso      1.000     C          0.698407  
         C28       1.0000    0.37210   0.58720   0.34860   Biso      1.000     C          -0.185673           
         C29       1.0000    0.40820   0.61980   0.40330   Biso      1.000     C          -0.140787           
         C30       1.0000    0.44940   0.50980   0.43160   Biso      1.000     C          0.148524  
         C31       1.0000    0.45610   0.36190   0.40420   Biso      1.000     C          -0.1063   
         C32       1.0000    0.42120   0.32990   0.35080   Biso      1.000     C          -0.213722           
         C33       1.0000    0.37750   0.43880   0.32130   Biso      1.000     C          0.395128  
         C34       1.0000    0.32900   0.71600   0.32320   Biso      1.000     C          0.652105  
         C35       1.0000    0.67900   0.74630   0.53980   Biso      1.000     C          0.337261  
         C36       1.0000    0.65780   0.68890   0.48360   Biso      1.000     C          -0.20505  
         C37       1.0000    0.67640   0.54210   0.46680   Biso      1.000     C          -0.122198           
         C38       1.0000    0.17100   0.78400   0.67680   Biso      1.000     C          0.652105  
         C39       1.0000    0.12790   0.91280   0.65140   Biso      1.000     C          -0.185673           
         C40       1.0000    0.09180   0.88020   0.59670   Biso      1.000     C          -0.140787           
         C41       1.0000    0.05060   0.99020   0.56840   Biso      1.000     C          0.148524  
         C42       1.0000    0.04390   0.13810   0.59580   Biso      1.000     C          -0.1063   
         C43       1.0000    0.07880   0.17010   0.64920   Biso      1.000     C          -0.213723           
         C44       1.0000    0.23720   0.00130   0.56140   Biso      1.000     C          -0.142216           
         C45       1.0000    0.12250   0.06120   0.67870   Biso      1.000     C          0.395128  
         C46       1.0000    0.28080   0.64910   0.92040   Biso      1.000     C          -0.185531           
         C47       1.0000    0.32100   0.74630   0.96020   Biso      1.000     C          0.337261  
         C48       1.0000    0.34220   0.68890   0.01640   Biso      1.000     C          -0.205049           
         C49       1.0000    0.32360   0.54210   0.03320   Biso      1.000     C          -0.1222   
         C50       1.0000    0.28310   0.44560   0.99500   Biso      1.000     C          0.158247  
         C51       1.0000    0.26280   0.50130   0.93860   Biso      1.000     C          -0.142213           
         C52       1.0000    0.26000   0.70270   0.85820   Biso      1.000     C          0.698407  
         C53       1.0000    0.21690   0.94560   0.50500   Biso      1.000     C          0.158249  
         C54       1.0000    0.17640   0.04210   0.46680   Biso      1.000     C          -0.122211           
         C55       1.0000    0.15780   0.18890   0.48360   Biso      1.000     C          -0.20504  
         C56       1.0000    0.71690   0.44560   0.50500   Biso      1.000     C          0.158252  
         C57       1.0000    0.73720   0.50130   0.56140   Biso      1.000     C          -0.142215           
         C58       1.0000    0.59180   0.38020   0.59670   Biso      1.000     C          -0.140782           
         C59       1.0000    0.62790   0.41280   0.65140   Biso      1.000     C          -0.185674           
         C60       1.0000    0.67100   0.28400   0.67680   Biso      1.000     C          0.652105  
         C61       1.0000    0.32900   0.28400   0.82320   Biso      1.000     C          0.652105  
         C62       1.0000    0.37210   0.41280   0.84860   Biso      1.000     C          -0.185674           
         C63       1.0000    0.40820   0.38020   0.90330   Biso      1.000     C          -0.140785           
         C64       1.0000    0.44940   0.49020   0.93160   Biso      1.000     C          0.14853   
         C65       1.0000    0.45610   0.63810   0.90420   Biso      1.000     C          -0.106301           
         C66       1.0000    0.42120   0.67010   0.85080   Biso      1.000     C          -0.213722           
         C67       1.0000    0.37750   0.56120   0.82130   Biso      1.000     C          0.395128  
         C68       1.0000    0.24000   0.20270   0.64180   Biso      1.000     C          0.698406  
         C69       1.0000    0.21920   0.14910   0.57960   Biso      1.000     C          -0.185529           
         C70       1.0000    0.17900   0.24630   0.53980   Biso      1.000     C          0.337261  
         C71       1.0000    0.67640   0.45790   0.96680   Biso      1.000     C          -0.122209           
         C72       1.0000    0.65780   0.31110   0.98360   Biso      1.000     C          -0.20504  
         C73       1.0000    0.24000   0.79730   0.14180   Biso      1.000     C          0.698407  
         C74       1.0000    0.71920   0.35090   0.07960   Biso      1.000     C          -0.185529           
         C75       1.0000    0.62250   0.43880   0.17870   Biso      1.000     C          0.395129  
         C76       1.0000    0.78310   0.94560   0.99500   Biso      1.000     C          0.158248  
         C77       1.0000    0.12250   0.93880   0.17870   Biso      1.000     C          0.395129  
         C78       1.0000    0.76280   0.00130   0.93860   Biso      1.000     C          -0.142213           
         C79       1.0000    0.76000   0.79730   0.35820   Biso      1.000     C          0.698407  
         C80       1.0000    0.26000   0.29730   0.35820   Biso      1.000     C          0.698407  
         C81       1.0000    0.78080   0.85090   0.42040   Biso      1.000     C          -0.185531           
         C82       1.0000    0.57880   0.32990   0.14920   Biso      1.000     C          -0.213729           
         C83       1.0000    0.82100   0.75370   0.46020   Biso      1.000     C          0.337262  
         C84       1.0000    0.32100   0.25370   0.46020   Biso      1.000     C          0.337261  
         C85       1.0000    0.34220   0.31110   0.51640   Biso      1.000     C          -0.20505  
         C86       1.0000    0.84220   0.81110   0.51640   Biso      1.000     C          -0.20505  
         C87       1.0000    0.82360   0.95790   0.53320   Biso      1.000     C          -0.1222   
         C88       1.0000    0.26280   0.49870   0.43860   Biso      1.000     C          -0.142218           
         C89       1.0000    0.78310   0.05440   0.49500   Biso      1.000     C          0.158247  
         C90       1.0000    0.76280   0.99870   0.43860   Biso      1.000     C          -0.142213           
         C91       1.0000    0.28080   0.35090   0.42040   Biso      1.000     C          -0.185529           
         C92       1.0000    0.28310   0.55440   0.49500   Biso      1.000     C          0.158254  
         C93       1.0000    0.82900   0.21600   0.32320   Biso      1.000     C          0.652105  
         C94       1.0000    0.90820   0.11980   0.40330   Biso      1.000     C          -0.140785           
         C95       1.0000    0.59180   0.61980   0.09670   Biso      1.000     C          -0.140787           
         C96       1.0000    0.74000   0.29730   0.14180   Biso      1.000     C          0.698407  
         C97       1.0000    0.12790   0.08720   0.15140   Biso      1.000     C          -0.185674           
         C98       1.0000    0.87750   0.93880   0.32130   Biso      1.000     C          0.395129  
         C99       1.0000    0.09180   0.11980   0.09670   Biso      1.000     C          -0.140785           
         C100      1.0000    0.67900   0.25370   0.03980   Biso      1.000     C          0.337261  
         C101      1.0000    0.62790   0.58720   0.15140   Biso      1.000     C          -0.185673           
         C102      1.0000    0.87210   0.08720   0.34860   Biso      1.000     C          -0.185674           
         C103      1.0000    0.55060   0.50980   0.06840   Biso      1.000     C          0.148523  
         C104      1.0000    0.05060   0.00980   0.06840   Biso      1.000     C          0.14853   
         C105      1.0000    0.92120   0.82990   0.35080   Biso      1.000     C          -0.213729           
         C106      1.0000    0.04390   0.86190   0.09580   Biso      1.000     C          -0.106301           
         C107      1.0000    0.54390   0.36190   0.09580   Biso      1.000     C          -0.106293           
         C108      1.0000    0.95610   0.86190   0.40420   Biso      1.000     C          -0.106295           
         C109      1.0000    0.94940   0.00980   0.43160   Biso      1.000     C          0.148529  
         C110      1.0000    0.07880   0.82990   0.14920   Biso      1.000     C          -0.213723           
         C111      1.0000    0.67100   0.71600   0.17680   Biso      1.000     C          0.652105  
         C112      1.0000    0.32360   0.45790   0.53320   Biso      1.000     C          -0.122198           
         Er1       1.0000    0.24755   0.46526   0.22838   Biso      1.000     Er          2.114218  
         Er2       1.0000    0.75245   0.53474   0.77162   Biso      1.000     Er          2.114217  
         Er3       1.0000    0.25245   0.96526   0.27162   Biso      1.000     Er          2.114217  
         Er4       1.0000    0.25245   0.03474   0.77162   Biso      1.000     Er          2.114218  
         Er5       1.0000    0.74755   0.96526   0.22838   Biso      1.000     Er          2.114218  
         Er6       1.0000    0.75245   0.46526   0.27162   Biso      1.000     Er          2.114217  
         Er7       1.0000    0.74755   0.03474   0.72838   Biso      1.000     Er          2.114218  
         Er8       1.0000    0.24755   0.53474   0.72838   Biso      1.000     Er          2.114217  
         H1        1.0000    0.16170   0.00570   0.42900   Biso      1.000     H          0.115974  
         H2        1.0000    0.23640   0.43730   0.91240   Biso      1.000     H          0.121545  
         H3        1.0000    0.33830   0.50570   0.07100   Biso      1.000     H          0.115973  
         H4        1.0000    0.09590   0.21880   0.07910   Biso      1.000     H          0.137981  
         H5        1.0000    0.36930   0.75110   0.04270   Biso      1.000     H          0.145057  
         H6        1.0000    0.01570   0.78590   0.07770   Biso      1.000     H          0.122867  
         H7        1.0000    0.40410   0.28120   0.92090   Biso      1.000     H          0.137981  
         H8        1.0000    0.07350   0.73170   0.16690   Biso      1.000     H          0.134462  
         H9        1.0000    0.48430   0.71410   0.92230   Biso      1.000     H          0.122867  
         H10       1.0000    0.01570   0.21410   0.57770   Biso      1.000     H          0.122868  
         H11       1.0000    0.42650   0.76830   0.83310   Biso      1.000     H          0.134462  
         H12       1.0000    0.33830   0.49430   0.57100   Biso      1.000     H          0.115974  
         H13       1.0000    0.33200   0.09200   0.41030   Biso      1.000     H          0.392688  
         H14       1.0000    0.09590   0.78120   0.57910   Biso      1.000     H          0.137981  
         H15       1.0000    0.59590   0.28120   0.57910   Biso      1.000     H          0.137981  
         H16       1.0000    0.23640   0.56270   0.41240   Biso      1.000     H          0.121544  
         H17       1.0000    0.16800   0.40800   0.58970   Biso      1.000     H          0.392689  
         H18       1.0000    0.13070   0.25110   0.45730   Biso      1.000     H          0.145057  
         H19       1.0000    0.26360   0.93730   0.58760   Biso      1.000     H          0.121545  
         H20       1.0000    0.07350   0.26830   0.66690   Biso      1.000     H          0.134462  
         H21       1.0000    0.36930   0.24890   0.54270   Biso      1.000     H          0.145057  
         H22       1.0000    0.59590   0.71880   0.07910   Biso      1.000     H          0.137981  
         H23       1.0000    0.83200   0.59200   0.41030   Biso      1.000     H          0.392688  
         H24       1.0000    0.16800   0.59200   0.08970   Biso      1.000     H          0.392688  
         H25       1.0000    0.26360   0.06270   0.08760   Biso      1.000     H          0.121544  
         H26       1.0000    0.66800   0.90800   0.58970   Biso      1.000     H          0.392688  
         H27       1.0000    0.16170   0.99430   0.92900   Biso      1.000     H          0.115975  
         H28       1.0000    0.13070   0.74890   0.95730   Biso      1.000     H          0.145057  
         H29       1.0000    0.83200   0.40800   0.91030   Biso      1.000     H          0.392688  
         H30       1.0000    0.73640   0.93730   0.91240   Biso      1.000     H          0.121545  
         H31       1.0000    0.42650   0.23170   0.33310   Biso      1.000     H          0.134461  
         H32       1.0000    0.48430   0.28590   0.42230   Biso      1.000     H          0.122869  
         H33       1.0000    0.83830   0.00570   0.07100   Biso      1.000     H          0.115974  
         H34       1.0000    0.40410   0.71880   0.42090   Biso      1.000     H          0.137981  
         H35       1.0000    0.90410   0.21880   0.42090   Biso      1.000     H          0.137981  
         H36       1.0000    0.98430   0.78590   0.42230   Biso      1.000     H          0.122867  
         H37       1.0000    0.86930   0.25110   0.04270   Biso      1.000     H          0.145057  
         H38       1.0000    0.66800   0.09200   0.08970   Biso      1.000     H          0.392688  
         H39       1.0000    0.76360   0.56270   0.08760   Biso      1.000     H          0.121544  
         H40       1.0000    0.92650   0.73170   0.33310   Biso      1.000     H          0.134462  
         H41       1.0000    0.66170   0.49430   0.92900   Biso      1.000     H          0.115975  
         H42       1.0000    0.63070   0.24890   0.95730   Biso      1.000     H          0.145057  
         H43       1.0000    0.73640   0.06270   0.41240   Biso      1.000     H          0.121545  
         H44       1.0000    0.57350   0.76830   0.66690   Biso      1.000     H          0.134462  
         H45       1.0000    0.33200   0.90800   0.91030   Biso      1.000     H          0.392688  
         H46       1.0000    0.83830   0.99430   0.57100   Biso      1.000     H          0.115973  
         H47       1.0000    0.86930   0.74890   0.54270   Biso      1.000     H          0.145057  
         H48       1.0000    0.51570   0.71410   0.57770   Biso      1.000     H          0.122867  
         H49       1.0000    0.76360   0.43730   0.58760   Biso      1.000     H          0.121543  
         H50       1.0000    0.90410   0.78120   0.92090   Biso      1.000     H          0.137981  
         H51       1.0000    0.98430   0.21410   0.92230   Biso      1.000     H          0.122869  
         H52       1.0000    0.66170   0.50570   0.42900   Biso      1.000     H          0.115974  
         H53       1.0000    0.63070   0.75110   0.45730   Biso      1.000     H          0.145057  
         H54       1.0000    0.92650   0.26830   0.83310   Biso      1.000     H          0.134462  
         H55       1.0000    0.57350   0.23170   0.16690   Biso      1.000     H          0.134462  
         H56       1.0000    0.51570   0.28590   0.07770   Biso      1.000     H          0.122868  
         N1        1.0000    0.51790   0.44620   0.51230   Biso      1.000     N          -0.152595           
         N2        1.0000    0.73500   0.70340   0.98183   Biso      1.000     N          -0.14628  
         N3        1.0000    0.98210   0.05380   0.48770   Biso      1.000     N          -0.152595           
         N4        1.0000    0.73500   0.29660   0.48183   Biso      1.000     N          -0.14628  
         N5        1.0000    0.76500   0.79660   0.01817   Biso      1.000     N          -0.146214           
         N6        1.0000    0.26500   0.70340   0.51817   Biso      1.000     N          -0.14628  
         N7        1.0000    0.76500   0.20340   0.51817   Biso      1.000     N          -0.146214           
         N8        1.0000    0.01790   0.94620   0.51230   Biso      1.000     N          -0.152529           
         N9        1.0000    0.23500   0.20340   0.98183   Biso      1.000     N          -0.14628  
         N10       1.0000    0.48210   0.55380   0.48770   Biso      1.000     N          -0.15253  
         N11       1.0000    0.01790   0.05380   0.01230   Biso      1.000     N          -0.152595           
         N12       1.0000    0.48210   0.44620   0.98770   Biso      1.000     N          -0.152595           
         N13       1.0000    0.23500   0.79660   0.48183   Biso      1.000     N          -0.146214           
         N14       1.0000    0.51790   0.55380   0.01230   Biso      1.000     N          -0.152529           
         N15       1.0000    0.98210   0.94620   0.98770   Biso      1.000     N          -0.152529           
         N16       1.0000    0.26500   0.29660   0.01817   Biso      1.000     N          -0.146214           
         O1        1.0000    0.23443   0.59880   0.82299   Biso      1.000     O          -0.68181  
         O2        1.0000    0.66953   0.14720   0.65388   Biso      1.000     O          -0.618392           
         O3        1.0000    0.27086   0.84540   0.84514   Biso      1.000     O          -0.723797           
         O4        1.0000    0.15584   0.10370   0.72953   Biso      1.000     O          -0.739102           
         O5        1.0000    0.71077   0.30860   0.72433   Biso      1.000     O          -0.840154           
         O6        1.0000    0.16953   0.64720   0.65388   Biso      1.000     O          -0.618391           
         O7        1.0000    0.77086   0.34540   0.84514   Biso      1.000     O          -0.723797           
         O8        1.0000    0.65584   0.60370   0.72953   Biso      1.000     O          -0.739101           
         O9        1.0000    0.21077   0.80860   0.72433   Biso      1.000     O          -0.840154           
         O10       1.0000    0.34070   0.89450   0.94712   Biso      1.000     O          -0.470929           
         O11       1.0000    0.15930   0.60550   0.05288   Biso      1.000     O          -0.47093  
         O12       1.0000    0.26557   0.09880   0.67701   Biso      1.000     O          -0.68181  
         O13       1.0000    0.72914   0.15460   0.15486   Biso      1.000     O          -0.723797           
         O14       1.0000    0.78923   0.19140   0.27567   Biso      1.000     O          -0.840154           
         O15       1.0000    0.83047   0.35280   0.34612   Biso      1.000     O          -0.618391           
         O16       1.0000    0.84070   0.60550   0.44712   Biso      1.000     O          -0.47093  
         O17       1.0000    0.73443   0.90120   0.32299   Biso      1.000     O          -0.68181  
         O18       1.0000    0.65584   0.39630   0.22953   Biso      1.000     O          -0.739101           
         O19       1.0000    0.77086   0.65460   0.34514   Biso      1.000     O          -0.723797           
         O20       1.0000    0.71077   0.69140   0.22433   Biso      1.000     O          -0.840154           
         O21       1.0000    0.66953   0.85280   0.15388   Biso      1.000     O          -0.618391           
         O22       1.0000    0.34070   0.10550   0.44712   Biso      1.000     O          -0.47093  
         O23       1.0000    0.23443   0.40120   0.32299   Biso      1.000     O          -0.68181  
         O24       1.0000    0.15584   0.89630   0.22953   Biso      1.000     O          -0.739101           
         O25       1.0000    0.27086   0.15460   0.34514   Biso      1.000     O          -0.723797           
         O26       1.0000    0.21077   0.19140   0.22433   Biso      1.000     O          -0.840154           
         O27       1.0000    0.16953   0.35280   0.15388   Biso      1.000     O          -0.618392           
         O28       1.0000    0.84416   0.89630   0.27047   Biso      1.000     O          -0.739101           
         O29       1.0000    0.15930   0.39450   0.55288   Biso      1.000     O          -0.47093  
         O30       1.0000    0.76557   0.40120   0.17701   Biso      1.000     O          -0.68181  
         O31       1.0000    0.33047   0.85280   0.34612   Biso      1.000     O          -0.618391           
         O32       1.0000    0.34416   0.60370   0.77047   Biso      1.000     O          -0.739101           
         O33       1.0000    0.22914   0.34540   0.65486   Biso      1.000     O          -0.723797           
         O34       1.0000    0.28923   0.30860   0.77567   Biso      1.000     O          -0.840154           
         O35       1.0000    0.33047   0.14720   0.84612   Biso      1.000     O          -0.618391           
         O36       1.0000    0.65930   0.89450   0.55288   Biso      1.000     O          -0.47093  
         O37       1.0000    0.76557   0.59880   0.67701   Biso      1.000     O          -0.68181  
         O38       1.0000    0.84416   0.10370   0.77047   Biso      1.000     O          -0.739102           
         O39       1.0000    0.72914   0.84540   0.65486   Biso      1.000     O          -0.723797           
         O40       1.0000    0.78923   0.80860   0.77567   Biso      1.000     O          -0.840154           
         O41       1.0000    0.83047   0.64720   0.84612   Biso      1.000     O          -0.618391           
         O42       1.0000    0.73443   0.09880   0.82299   Biso      1.000     O          -0.68181  
         O43       1.0000    0.26557   0.90120   0.17701   Biso      1.000     O          -0.68181  
         O44       1.0000    0.34416   0.39630   0.27047   Biso      1.000     O          -0.739101           
         O45       1.0000    0.22914   0.65460   0.15486   Biso      1.000     O          -0.723797           
         O46       1.0000    0.28923   0.69140   0.27567   Biso      1.000     O          -0.840154           
         O47       1.0000    0.65930   0.10550   0.05288   Biso      1.000     O          -0.47093  
         O48       1.0000    0.84070   0.39450   0.94712   Biso      1.000     O          -0.470929 