
##########################################################################
#               Crystallographic Information Format file
#               Produced by PyCifRW module
#
#  This is a CIF file.  CIF has been adopted by the International
#  Union of Crystallography as the standard for data archiving and
#  transmission.
#
#  For information on this file format, follow the CIF links at
#  http://www.iucr.org
##########################################################################

data_image0

_cell_length_a                          21.8947
_cell_length_b                          8.3062
_cell_length_c                          23.2034
_cell_angle_alpha                       90
_cell_angle_beta                        100.053
_cell_angle_gamma                       90
_symmetry_space_group_name_H-M          'P 1'
_symmetry_int_tables_number             1
loop_
  _symmetry_equiv_pos_as_xyz
         'x, y, z' 
loop_
  _atom_site_label
  _atom_site_occupancy
  _atom_site_fract_x
  _atom_site_fract_y
  _atom_site_fract_z
  _atom_site_thermal_displace_type
  _atom_site_B_iso_or_equiv
  _atom_site_type_symbol
  _atom_site_charge
         C1        1.0000    0.07880   0.83000   0.14920   Biso      1.000     C          -0.212281           
         C2        1.0000    0.21920   0.14920   0.57960   Biso      1.000     C          -0.183739           
         C3        1.0000    0.17910   0.24630   0.53980   Biso      1.000     C          0.336225  
         C4        1.0000    0.15780   0.18890   0.48360   Biso      1.000     C          -0.205047           
         C5        1.0000    0.17640   0.04190   0.46680   Biso      1.000     C          -0.12337  
         C6        1.0000    0.26290   0.49820   0.43864   Biso      1.000     C          -0.141993           
         C7        1.0000    0.28310   0.55440   0.49500   Biso      1.000     C          0.15771   
         C8        1.0000    0.32360   0.45810   0.53320   Biso      1.000     C          -0.123381           
         C9        1.0000    0.34220   0.31110   0.51640   Biso      1.000     C          -0.205037           
         C10       1.0000    0.32090   0.25370   0.46020   Biso      1.000     C          0.336224  
         C11       1.0000    0.28080   0.35080   0.42040   Biso      1.000     C          -0.183734           
         C12       1.0000    0.25990   0.29740   0.35820   Biso      1.000     C          0.700816  
         C13       1.0000    0.45600   0.36190   0.40420   Biso      1.000     C          -0.105451           
         C14       1.0000    0.44940   0.50980   0.43160   Biso      1.000     C          0.148435  
         C15       1.0000    0.40830   0.61970   0.40330   Biso      1.000     C          -0.139201           
         C16       1.0000    0.32910   0.71600   0.32320   Biso      1.000     C          0.653757  
         C17       1.0000    0.37210   0.58740   0.34850   Biso      1.000     C          -0.187012           
         C18       1.0000    0.37750   0.43880   0.32130   Biso      1.000     C          0.396713  
         C19       1.0000    0.42120   0.33000   0.35080   Biso      1.000     C          -0.212274           
         C20       1.0000    0.21690   0.94560   0.50500   Biso      1.000     C          0.157714  
         C21       1.0000    0.23710   0.00180   0.56136   Biso      1.000     C          -0.141989           
         C22       1.0000    0.26290   0.50180   0.93864   Biso      1.000     C          -0.141995           
         C23       1.0000    0.57880   0.67000   0.64920   Biso      1.000     C          -0.21228  
         C24       1.0000    0.76290   0.99820   0.43864   Biso      1.000     C          -0.141993           
         C25       1.0000    0.78310   0.05440   0.49500   Biso      1.000     C          0.15771   
         C26       1.0000    0.82360   0.95810   0.53320   Biso      1.000     C          -0.123381           
         C27       1.0000    0.84220   0.81110   0.51640   Biso      1.000     C          -0.205037           
         C28       1.0000    0.82090   0.75370   0.46020   Biso      1.000     C          0.336224  
         C29       1.0000    0.78080   0.85080   0.42040   Biso      1.000     C          -0.183734           
         C30       1.0000    0.75990   0.79740   0.35820   Biso      1.000     C          0.700816  
         C31       1.0000    0.24010   0.20260   0.64180   Biso      1.000     C          0.700817  
         C32       1.0000    0.92120   0.17000   0.85080   Biso      1.000     C          -0.21228  
         C33       1.0000    0.87750   0.06120   0.82130   Biso      1.000     C          0.396714  
         C34       1.0000    0.87210   0.91260   0.84850   Biso      1.000     C          -0.187013           
         C35       1.0000    0.32360   0.54190   0.03320   Biso      1.000     C          -0.123379           
         C36       1.0000    0.34220   0.68890   0.01640   Biso      1.000     C          -0.205038           
         C37       1.0000    0.32090   0.74630   0.96020   Biso      1.000     C          0.336224  
         C38       1.0000    0.28080   0.64920   0.92040   Biso      1.000     C          -0.183734           
         C39       1.0000    0.25990   0.70260   0.85820   Biso      1.000     C          0.700816  
         C40       1.0000    0.45600   0.63810   0.90420   Biso      1.000     C          -0.105452           
         C41       1.0000    0.44940   0.49020   0.93160   Biso      1.000     C          0.148441  
         C42       1.0000    0.40830   0.38030   0.90330   Biso      1.000     C          -0.139199           
         C43       1.0000    0.32910   0.28400   0.82320   Biso      1.000     C          0.653757  
         C44       1.0000    0.37210   0.41260   0.84850   Biso      1.000     C          -0.187013           
         C45       1.0000    0.37750   0.56120   0.82130   Biso      1.000     C          0.396713  
         C46       1.0000    0.42120   0.67000   0.85080   Biso      1.000     C          -0.212274           
         C47       1.0000    0.07880   0.17000   0.64920   Biso      1.000     C          -0.21228  
         C48       1.0000    0.12250   0.06120   0.67870   Biso      1.000     C          0.396714  
         C49       1.0000    0.95600   0.86190   0.40420   Biso      1.000     C          -0.105451           
         C50       1.0000    0.12790   0.91260   0.65150   Biso      1.000     C          -0.187012           
         C51       1.0000    0.09170   0.88030   0.59670   Biso      1.000     C          -0.139202           
         C52       1.0000    0.05060   0.99020   0.56840   Biso      1.000     C          0.148444  
         C53       1.0000    0.04400   0.13810   0.59580   Biso      1.000     C          -0.105446           
         C54       1.0000    0.76290   0.00180   0.93864   Biso      1.000     C          -0.141995           
         C55       1.0000    0.78310   0.94560   0.99500   Biso      1.000     C          0.157716  
         C56       1.0000    0.82360   0.04190   0.03320   Biso      1.000     C          -0.123379           
         C57       1.0000    0.84220   0.18890   0.01640   Biso      1.000     C          -0.205038           
         C58       1.0000    0.82090   0.24630   0.96020   Biso      1.000     C          0.336224  
         C59       1.0000    0.78080   0.14920   0.92040   Biso      1.000     C          -0.183734           
         C60       1.0000    0.75990   0.20260   0.85820   Biso      1.000     C          0.700816  
         C61       1.0000    0.95600   0.13810   0.90420   Biso      1.000     C          -0.105446           
         C62       1.0000    0.94940   0.99020   0.93160   Biso      1.000     C          0.148441  
         C63       1.0000    0.90830   0.88030   0.90330   Biso      1.000     C          -0.139199           
         C64       1.0000    0.82910   0.78400   0.82320   Biso      1.000     C          0.653757  
         C65       1.0000    0.17090   0.78400   0.67680   Biso      1.000     C          0.653757  
         C66       1.0000    0.94940   0.00980   0.43160   Biso      1.000     C          0.148435  
         C67       1.0000    0.28310   0.44560   0.99500   Biso      1.000     C          0.157716  
         C68       1.0000    0.90830   0.11970   0.40330   Biso      1.000     C          -0.139201           
         C69       1.0000    0.67910   0.25370   0.03980   Biso      1.000     C          0.336225  
         C70       1.0000    0.71920   0.35080   0.07960   Biso      1.000     C          -0.183739           
         C71       1.0000    0.74010   0.29740   0.14180   Biso      1.000     C          0.700817  
         C72       1.0000    0.54400   0.36190   0.09580   Biso      1.000     C          -0.105451           
         C73       1.0000    0.55060   0.50980   0.06840   Biso      1.000     C          0.148435  
         C74       1.0000    0.67090   0.71600   0.17680   Biso      1.000     C          0.653757  
         C75       1.0000    0.62790   0.58740   0.15150   Biso      1.000     C          -0.187012           
         C76       1.0000    0.62250   0.43880   0.17870   Biso      1.000     C          0.396713  
         C77       1.0000    0.57880   0.33000   0.14920   Biso      1.000     C          -0.212274           
         C78       1.0000    0.71920   0.64920   0.57960   Biso      1.000     C          -0.183739           
         C79       1.0000    0.67910   0.74630   0.53980   Biso      1.000     C          0.336225  
         C80       1.0000    0.65780   0.68890   0.48360   Biso      1.000     C          -0.205047           
         C81       1.0000    0.67640   0.54190   0.46680   Biso      1.000     C          -0.12337  
         C82       1.0000    0.65780   0.31110   0.98360   Biso      1.000     C          -0.205046           
         C83       1.0000    0.71690   0.44560   0.50500   Biso      1.000     C          0.157714  
         C84       1.0000    0.23710   0.99820   0.06136   Biso      1.000     C          -0.141993           
         C85       1.0000    0.21690   0.05440   0.00500   Biso      1.000     C          0.15771   
         C86       1.0000    0.17640   0.95810   0.96680   Biso      1.000     C          -0.123381           
         C87       1.0000    0.15780   0.81110   0.98360   Biso      1.000     C          -0.205037           
         C88       1.0000    0.17910   0.75370   0.03980   Biso      1.000     C          0.336224  
         C89       1.0000    0.21920   0.85080   0.07960   Biso      1.000     C          -0.183734           
         C90       1.0000    0.24010   0.79740   0.14180   Biso      1.000     C          0.700816  
         C91       1.0000    0.04400   0.86190   0.09580   Biso      1.000     C          -0.105444           
         C92       1.0000    0.05060   0.00980   0.06840   Biso      1.000     C          0.148434  
         C93       1.0000    0.09170   0.11970   0.09670   Biso      1.000     C          -0.139201           
         C94       1.0000    0.17090   0.21600   0.17680   Biso      1.000     C          0.653757  
         C95       1.0000    0.12790   0.08740   0.15150   Biso      1.000     C          -0.187012           
         C96       1.0000    0.12250   0.93880   0.17870   Biso      1.000     C          0.396714  
         C97       1.0000    0.73710   0.50180   0.56136   Biso      1.000     C          -0.141989           
         C98       1.0000    0.67640   0.45810   0.96680   Biso      1.000     C          -0.123372           
         C99       1.0000    0.59170   0.61970   0.09670   Biso      1.000     C          -0.139201           
         C100      1.0000    0.59170   0.38030   0.59670   Biso      1.000     C          -0.139202           
         C101      1.0000    0.67090   0.28400   0.67680   Biso      1.000     C          0.653757  
         C102      1.0000    0.55060   0.49020   0.56840   Biso      1.000     C          0.148444  
         C103      1.0000    0.54400   0.63810   0.59580   Biso      1.000     C          -0.105446           
         C104      1.0000    0.62790   0.41260   0.65150   Biso      1.000     C          -0.187012           
         C105      1.0000    0.92120   0.83000   0.35080   Biso      1.000     C          -0.212274           
         C106      1.0000    0.74010   0.70260   0.64180   Biso      1.000     C          0.700817  
         C107      1.0000    0.87750   0.93880   0.32130   Biso      1.000     C          0.396713  
         C108      1.0000    0.62250   0.56120   0.67870   Biso      1.000     C          0.396714  
         C109      1.0000    0.82910   0.21600   0.32320   Biso      1.000     C          0.653757  
         C110      1.0000    0.71690   0.55440   0.00500   Biso      1.000     C          0.157708  
         C111      1.0000    0.73710   0.49820   0.06136   Biso      1.000     C          -0.141988           
         C112      1.0000    0.87210   0.08740   0.34850   Biso      1.000     C          -0.187012           
         H1        1.0000    0.48420   0.71410   0.92240   Biso      1.000     H          0.122374  
         H2        1.0000    0.16960   0.59050   0.08940   Biso      1.000     H          0.3927    
         H3        1.0000    0.73640   0.93800   0.91240   Biso      1.000     H          0.120494  
         H4        1.0000    0.83040   0.40950   0.91060   Biso      1.000     H          0.3927    
         H5        1.0000    0.26360   0.06200   0.08760   Biso      1.000     H          0.120495  
         H6        1.0000    0.83040   0.59050   0.41060   Biso      1.000     H          0.3927    
         H7        1.0000    0.09570   0.78120   0.57910   Biso      1.000     H          0.137226  
         H8        1.0000    0.73640   0.06200   0.41240   Biso      1.000     H          0.120495  
         H9        1.0000    0.16170   0.99460   0.92910   Biso      1.000     H          0.116087  
         H10       1.0000    0.13070   0.74900   0.95730   Biso      1.000     H          0.145138  
         H11       1.0000    0.07340   0.26820   0.66690   Biso      1.000     H          0.134661  
         H12       1.0000    0.36930   0.75100   0.04270   Biso      1.000     H          0.145138  
         H13       1.0000    0.83830   0.99460   0.57090   Biso      1.000     H          0.116087  
         H14       1.0000    0.42660   0.76820   0.83310   Biso      1.000     H          0.13466   
         H15       1.0000    0.76360   0.43800   0.58760   Biso      1.000     H          0.120494  
         H16       1.0000    0.86930   0.74900   0.54270   Biso      1.000     H          0.145138  
         H17       1.0000    0.01580   0.78590   0.07760   Biso      1.000     H          0.122375  
         H18       1.0000    0.98420   0.78590   0.42240   Biso      1.000     H          0.122375  
         H19       1.0000    0.40430   0.28120   0.92090   Biso      1.000     H          0.137226  
         H20       1.0000    0.92660   0.73180   0.33310   Biso      1.000     H          0.13466   
         H21       1.0000    0.09570   0.21880   0.07910   Biso      1.000     H          0.137225  
         H22       1.0000    0.07340   0.73180   0.16690   Biso      1.000     H          0.134661  
         H23       1.0000    0.83830   0.00540   0.07090   Biso      1.000     H          0.116087  
         H24       1.0000    0.48420   0.28590   0.42240   Biso      1.000     H          0.122375  
         H25       1.0000    0.86930   0.25100   0.04270   Biso      1.000     H          0.145138  
         H26       1.0000    0.63070   0.24900   0.95730   Biso      1.000     H          0.145138  
         H27       1.0000    0.40430   0.71880   0.42090   Biso      1.000     H          0.137225  
         H28       1.0000    0.36930   0.24900   0.54270   Biso      1.000     H          0.145138  
         H29       1.0000    0.76360   0.56200   0.08760   Biso      1.000     H          0.120495  
         H30       1.0000    0.33830   0.49460   0.57090   Biso      1.000     H          0.116087  
         H31       1.0000    0.66960   0.09050   0.08940   Biso      1.000     H          0.3927    
         H32       1.0000    0.51580   0.28590   0.07760   Biso      1.000     H          0.122375  
         H33       1.0000    0.23640   0.56200   0.41240   Biso      1.000     H          0.120495  
         H34       1.0000    0.33040   0.09050   0.41060   Biso      1.000     H          0.3927    
         H35       1.0000    0.16170   0.00540   0.42910   Biso      1.000     H          0.116087  
         H36       1.0000    0.13070   0.25100   0.45730   Biso      1.000     H          0.145138  
         H37       1.0000    0.42660   0.23180   0.33310   Biso      1.000     H          0.13466   
         H38       1.0000    0.66960   0.90950   0.58940   Biso      1.000     H          0.3927    
         H39       1.0000    0.59570   0.71880   0.07910   Biso      1.000     H          0.137225  
         H40       1.0000    0.90430   0.21880   0.42090   Biso      1.000     H          0.137225  
         H41       1.0000    0.51580   0.71410   0.57760   Biso      1.000     H          0.122374  
         H42       1.0000    0.01580   0.21410   0.57760   Biso      1.000     H          0.122374  
         H43       1.0000    0.92660   0.26820   0.83310   Biso      1.000     H          0.134661  
         H44       1.0000    0.57340   0.23180   0.16690   Biso      1.000     H          0.13466   
         H45       1.0000    0.26360   0.93800   0.58760   Biso      1.000     H          0.120494  
         H46       1.0000    0.16960   0.40950   0.58940   Biso      1.000     H          0.392699  
         H47       1.0000    0.90430   0.78120   0.92090   Biso      1.000     H          0.137226  
         H48       1.0000    0.33040   0.90950   0.91060   Biso      1.000     H          0.3927    
         H49       1.0000    0.59570   0.28120   0.57910   Biso      1.000     H          0.137226  
         H50       1.0000    0.98420   0.21410   0.92240   Biso      1.000     H          0.122374  
         H51       1.0000    0.63070   0.75100   0.45730   Biso      1.000     H          0.145138  
         H52       1.0000    0.33830   0.50540   0.07090   Biso      1.000     H          0.116087  
         H53       1.0000    0.66170   0.50540   0.42910   Biso      1.000     H          0.116087  
         H54       1.0000    0.66170   0.49460   0.92910   Biso      1.000     H          0.116086  
         H55       1.0000    0.57340   0.76820   0.66690   Biso      1.000     H          0.134661  
         H56       1.0000    0.23640   0.43800   0.91240   Biso      1.000     H          0.120494  
         N1        1.0000    0.23500   0.79650   0.48187   Biso      1.000     N          -0.146094           
         N2        1.0000    0.51790   0.44630   0.51230   Biso      1.000     N          -0.152309           
         N3        1.0000    0.01790   0.94630   0.51230   Biso      1.000     N          -0.152309           
         N4        1.0000    0.48210   0.44630   0.98770   Biso      1.000     N          -0.152309           
         N5        1.0000    0.73500   0.29650   0.48187   Biso      1.000     N          -0.146094           
         N6        1.0000    0.76500   0.79650   0.01813   Biso      1.000     N          -0.146094           
         N7        1.0000    0.26500   0.29650   0.01813   Biso      1.000     N          -0.146094           
         N8        1.0000    0.98210   0.94630   0.98770   Biso      1.000     N          -0.152309           
         N9        1.0000    0.76500   0.20350   0.51813   Biso      1.000     N          -0.146028           
         N10       1.0000    0.51790   0.55370   0.01230   Biso      1.000     N          -0.152239           
         N11       1.0000    0.73500   0.70350   0.98187   Biso      1.000     N          -0.146028           
         N12       1.0000    0.48210   0.55370   0.48770   Biso      1.000     N          -0.152239           
         N13       1.0000    0.26500   0.70350   0.51813   Biso      1.000     N          -0.146028           
         N14       1.0000    0.01790   0.05370   0.01230   Biso      1.000     N          -0.152239           
         N15       1.0000    0.23500   0.20350   0.98187   Biso      1.000     N          -0.146028           
         N16       1.0000    0.98210   0.05370   0.48770   Biso      1.000     N          -0.152239           
         O1        1.0000    0.65920   0.10560   0.05279   Biso      1.000     O          -0.47017  
         O2        1.0000    0.73444   0.90110   0.32302   Biso      1.000     O          -0.681379           
         O3        1.0000    0.15920   0.39440   0.55279   Biso      1.000     O          -0.47017  
         O4        1.0000    0.15584   0.10390   0.72950   Biso      1.000     O          -0.741624           
         O5        1.0000    0.21081   0.80850   0.72431   Biso      1.000     O          -0.844805           
         O6        1.0000    0.71081   0.30850   0.72431   Biso      1.000     O          -0.844805           
         O7        1.0000    0.65584   0.39610   0.22950   Biso      1.000     O          -0.741624           
         O8        1.0000    0.23444   0.59890   0.82302   Biso      1.000     O          -0.681379           
         O9        1.0000    0.66951   0.85280   0.15388   Biso      1.000     O          -0.619597           
         O10       1.0000    0.72910   0.15460   0.15482   Biso      1.000     O          -0.727656           
         O11       1.0000    0.76556   0.40110   0.17698   Biso      1.000     O          -0.681379           
         O12       1.0000    0.65584   0.60390   0.72950   Biso      1.000     O          -0.741624           
         O13       1.0000    0.15920   0.60560   0.05279   Biso      1.000     O          -0.47017  
         O14       1.0000    0.15584   0.89610   0.22950   Biso      1.000     O          -0.741624           
         O15       1.0000    0.21081   0.19150   0.22431   Biso      1.000     O          -0.844805           
         O16       1.0000    0.16951   0.35280   0.15388   Biso      1.000     O          -0.619597           
         O17       1.0000    0.22910   0.65460   0.15482   Biso      1.000     O          -0.727656           
         O18       1.0000    0.26556   0.90110   0.17698   Biso      1.000     O          -0.681379           
         O19       1.0000    0.71081   0.69150   0.22431   Biso      1.000     O          -0.844805           
         O20       1.0000    0.16951   0.64720   0.65388   Biso      1.000     O          -0.619598           
         O21       1.0000    0.77090   0.65460   0.34518   Biso      1.000     O          -0.727656           
         O22       1.0000    0.26556   0.09890   0.67698   Biso      1.000     O          -0.681379           
         O23       1.0000    0.27090   0.84540   0.84518   Biso      1.000     O          -0.727656           
         O24       1.0000    0.33049   0.14720   0.84612   Biso      1.000     O          -0.619598           
         O25       1.0000    0.28919   0.30850   0.77569   Biso      1.000     O          -0.844805           
         O26       1.0000    0.34416   0.60390   0.77050   Biso      1.000     O          -0.741624           
         O27       1.0000    0.34080   0.89440   0.94721   Biso      1.000     O          -0.47017  
         O28       1.0000    0.76556   0.59890   0.67698   Biso      1.000     O          -0.681379           
         O29       1.0000    0.72910   0.84540   0.65482   Biso      1.000     O          -0.727656           
         O30       1.0000    0.84080   0.39440   0.94721   Biso      1.000     O          -0.470171           
         O31       1.0000    0.84416   0.10390   0.77050   Biso      1.000     O          -0.741624           
         O32       1.0000    0.78919   0.80850   0.77569   Biso      1.000     O          -0.844805           
         O33       1.0000    0.83049   0.64720   0.84612   Biso      1.000     O          -0.619598           
         O34       1.0000    0.22910   0.34540   0.65482   Biso      1.000     O          -0.727656           
         O35       1.0000    0.77090   0.34540   0.84518   Biso      1.000     O          -0.727656           
         O36       1.0000    0.65920   0.89440   0.55279   Biso      1.000     O          -0.47017  
         O37       1.0000    0.34080   0.10560   0.44721   Biso      1.000     O          -0.47017  
         O38       1.0000    0.34416   0.39610   0.27050   Biso      1.000     O          -0.741624           
         O39       1.0000    0.28919   0.69150   0.27569   Biso      1.000     O          -0.844805           
         O40       1.0000    0.27090   0.15460   0.34518   Biso      1.000     O          -0.727656           
         O41       1.0000    0.23444   0.40110   0.32302   Biso      1.000     O          -0.681379           
         O42       1.0000    0.66951   0.14720   0.65388   Biso      1.000     O          -0.619598           
         O43       1.0000    0.84080   0.60560   0.44721   Biso      1.000     O          -0.47017  
         O44       1.0000    0.84416   0.89610   0.27050   Biso      1.000     O          -0.741624           
         O45       1.0000    0.78919   0.19150   0.27569   Biso      1.000     O          -0.844805           
         O46       1.0000    0.83049   0.35280   0.34612   Biso      1.000     O          -0.619597           
         O47       1.0000    0.73444   0.09890   0.82302   Biso      1.000     O          -0.681379           
         O48       1.0000    0.33049   0.85280   0.34612   Biso      1.000     O          -0.619597           
         Tm1       1.0000    0.24755   0.46525   0.22838   Biso      1.000     Tm          2.119309  
         Tm2       1.0000    0.24755   0.53475   0.72838   Biso      1.000     Tm          2.119309  
         Tm3       1.0000    0.74755   0.03475   0.72838   Biso      1.000     Tm          2.119309  
         Tm4       1.0000    0.74755   0.96525   0.22838   Biso      1.000     Tm          2.119309  
         Tm5       1.0000    0.75245   0.46525   0.27162   Biso      1.000     Tm          2.119309  
         Tm6       1.0000    0.25245   0.96525   0.27162   Biso      1.000     Tm          2.119309  
         Tm7       1.0000    0.25245   0.03475   0.77162   Biso      1.000     Tm          2.119309  
         Tm8       1.0000    0.75245   0.53475   0.77162   Biso      1.000     Tm          2.119309 