
##########################################################################
#               Crystallographic Information Format file
#               Produced by PyCifRW module
#
#  This is a CIF file.  CIF has been adopted by the International
#  Union of Crystallography as the standard for data archiving and
#  transmission.
#
#  For information on this file format, follow the CIF links at
#  http://www.iucr.org
##########################################################################

data_image0

_cell_length_a                          14.849
_cell_length_b                          14.849
_cell_length_c                          21.806
_cell_angle_alpha                       90
_cell_angle_beta                        90
_cell_angle_gamma                       120
_symmetry_space_group_name_H-M          'P 1'
_symmetry_int_tables_number             1
loop_
  _symmetry_equiv_pos_as_xyz
         'x, y, z' 
loop_
  _atom_site_label
  _atom_site_occupancy
  _atom_site_fract_x
  _atom_site_fract_y
  _atom_site_fract_z
  _atom_site_thermal_displace_type
  _atom_site_B_iso_or_equiv
  _atom_site_type_symbol
  _atom_site_charge
         C1        1.0000    0.38270   0.37400   0.51550   Biso      1.000     C          0.007629  
         C2        1.0000    0.99870   0.34020   0.60860   Biso      1.000     C          0.064692  
         C3        1.0000    0.09630   0.39330   0.57950   Biso      1.000     C          -0.104161           
         C4        1.0000    0.10100   0.41240   0.51680   Biso      1.000     C          -0.087449           
         C5        1.0000    0.70300   0.09630   0.42050   Biso      1.000     C          -0.104162           
         C6        1.0000    0.41240   0.10100   0.98320   Biso      1.000     C          -0.087448           
         C7        1.0000    0.39330   0.09630   0.92050   Biso      1.000     C          -0.10416  
         C8        1.0000    0.65850   0.99870   0.39140   Biso      1.000     C          0.064693  
         C9        1.0000    0.34020   0.99870   0.89140   Biso      1.000     C          0.064693  
         C10       1.0000    0.38270   0.00870   0.01550   Biso      1.000     C          0.00763   
         C11       1.0000    0.39920   0.00550   0.08240   Biso      1.000     C          0.234298  
         C12       1.0000    0.62600   0.00870   0.51550   Biso      1.000     C          0.007629  
         C13       1.0000    0.33920   0.91490   0.98160   Biso      1.000     C          0.0207    
         C14       1.0000    0.60630   0.00550   0.58240   Biso      1.000     C          0.234293  
         C15       1.0000    0.08510   0.66080   0.48160   Biso      1.000     C          0.020698  
         C16       1.0000    0.60080   0.60630   0.41760   Biso      1.000     C          0.234295  
         C17       1.0000    0.00870   0.38270   0.48450   Biso      1.000     C          0.00763   
         C18       1.0000    0.41240   0.31140   0.48320   Biso      1.000     C          -0.087448           
         C19       1.0000    0.00550   0.39920   0.41760   Biso      1.000     C          0.234299  
         C20       1.0000    0.39330   0.29700   0.42050   Biso      1.000     C          -0.104161           
         C21       1.0000    0.65980   0.65850   0.60860   Biso      1.000     C          0.064693  
         C22       1.0000    0.66080   0.57570   0.51840   Biso      1.000     C          0.020698  
         C23       1.0000    0.33920   0.42430   0.48160   Biso      1.000     C          0.020698  
         C24       1.0000    0.60670   0.70300   0.57950   Biso      1.000     C          -0.104161           
         C25       1.0000    0.39920   0.39370   0.58240   Biso      1.000     C          0.234294  
         C26       1.0000    0.66080   0.08510   0.01840   Biso      1.000     C          0.0207    
         C27       1.0000    0.34020   0.34150   0.39140   Biso      1.000     C          0.064692  
         C28       1.0000    0.99450   0.60080   0.58240   Biso      1.000     C          0.234294  
         C29       1.0000    0.58760   0.68860   0.51680   Biso      1.000     C          -0.087449           
         C30       1.0000    0.29700   0.90370   0.57950   Biso      1.000     C          -0.104162           
         C31       1.0000    0.68860   0.10100   0.48320   Biso      1.000     C          -0.087448           
         C32       1.0000    0.34150   0.00130   0.60860   Biso      1.000     C          0.064692  
         C33       1.0000    0.37400   0.99130   0.48450   Biso      1.000     C          0.007629  
         C34       1.0000    0.39370   0.99450   0.41760   Biso      1.000     C          0.234296  
         C35       1.0000    0.91490   0.33920   0.51840   Biso      1.000     C          0.020699  
         C36       1.0000    0.42430   0.08510   0.51840   Biso      1.000     C          0.020697  
         C37       1.0000    0.31140   0.89900   0.51680   Biso      1.000     C          -0.087448           
         C38       1.0000    0.99130   0.61730   0.51550   Biso      1.000     C          0.00763   
         C39       1.0000    0.91490   0.57570   0.01840   Biso      1.000     C          0.020698  
         C40       1.0000    0.00870   0.62600   0.98450   Biso      1.000     C          0.007629  
         C41       1.0000    0.00550   0.60630   0.91760   Biso      1.000     C          0.234297  
         C42       1.0000    0.89900   0.31140   0.98320   Biso      1.000     C          -0.087447           
         C43       1.0000    0.37400   0.38270   0.98450   Biso      1.000     C          0.007629  
         C44       1.0000    0.90370   0.29700   0.92050   Biso      1.000     C          -0.104161           
         C45       1.0000    0.34150   0.34020   0.10860   Biso      1.000     C          0.064694  
         C46       1.0000    0.00130   0.34150   0.89140   Biso      1.000     C          0.064694  
         C47       1.0000    0.99130   0.37400   0.01550   Biso      1.000     C          0.007629  
         C48       1.0000    0.99450   0.39370   0.08240   Biso      1.000     C          0.234297  
         C49       1.0000    0.29700   0.39330   0.07950   Biso      1.000     C          -0.10416  
         C50       1.0000    0.08510   0.42430   0.98160   Biso      1.000     C          0.020698  
         C51       1.0000    0.31140   0.41240   0.01680   Biso      1.000     C          -0.087447           
         C52       1.0000    0.60670   0.90370   0.07950   Biso      1.000     C          -0.10416  
         C53       1.0000    0.65980   0.00130   0.10860   Biso      1.000     C          0.064692  
         C54       1.0000    0.61730   0.99130   0.98450   Biso      1.000     C          0.00763   
         C55       1.0000    0.60080   0.99450   0.91760   Biso      1.000     C          0.234298  
         C56       1.0000    0.42430   0.33920   0.01840   Biso      1.000     C          0.020699  
         C57       1.0000    0.58760   0.89900   0.01680   Biso      1.000     C          -0.087448           
         C58       1.0000    0.39370   0.39920   0.91760   Biso      1.000     C          0.234298  
         C59       1.0000    0.65850   0.65980   0.89140   Biso      1.000     C          0.064694  
         C60       1.0000    0.00130   0.65980   0.39140   Biso      1.000     C          0.064691  
         C61       1.0000    0.99870   0.65850   0.10860   Biso      1.000     C          0.064694  
         C62       1.0000    0.68860   0.58760   0.98320   Biso      1.000     C          -0.087447           
         C63       1.0000    0.09630   0.70300   0.07950   Biso      1.000     C          -0.104161           
         C64       1.0000    0.70300   0.60670   0.92050   Biso      1.000     C          -0.10416  
         C65       1.0000    0.10100   0.68860   0.01680   Biso      1.000     C          -0.087447           
         C66       1.0000    0.62600   0.61730   0.01550   Biso      1.000     C          0.007629  
         C67       1.0000    0.60630   0.60080   0.08240   Biso      1.000     C          0.234298  
         C68       1.0000    0.61730   0.62600   0.48450   Biso      1.000     C          0.007629  
         C69       1.0000    0.57570   0.66080   0.98160   Biso      1.000     C          0.020699  
         C70       1.0000    0.90370   0.60670   0.42050   Biso      1.000     C          -0.104161           
         C71       1.0000    0.89900   0.58760   0.48320   Biso      1.000     C          -0.087449           
         C72       1.0000    0.57570   0.91490   0.48160   Biso      1.000     C          0.020697  
         Cu1       1.0000    0.51555   0.37898   0.75162   Biso      1.000     Cu          0.177882  
         Cu2       1.0000    0.76535   0.23964   0.61806   Biso      1.000     Cu          0.234863  
         Cu3       1.0000    0.23964   0.47429   0.38194   Biso      1.000     Cu          0.234819  
         Cu4       1.0000    0.13657   0.51555   0.24838   Biso      1.000     Cu          0.177853  
         Cu5       1.0000    0.47429   0.23465   0.61806   Biso      1.000     Cu          0.234818  
         Cu6       1.0000    0.23964   0.76535   0.88194   Biso      1.000     Cu          0.234864  
         Cu7       1.0000    0.37898   0.51555   0.74838   Biso      1.000     Cu          0.177873  
         Cu8       1.0000    0.48445   0.86343   0.74838   Biso      1.000     Cu          0.17785   
         Cu9       1.0000    0.52571   0.76036   0.88194   Biso      1.000     Cu          0.234819  
         Cu10      1.0000    0.13657   0.62102   0.74838   Biso      1.000     Cu          0.177851  
         Cu11      1.0000    0.23465   0.47429   0.88194   Biso      1.000     Cu          0.234821  
         Cu12      1.0000    0.62102   0.13657   0.75162   Biso      1.000     Cu          0.177861  
         Cu13      1.0000    0.66667   0.33333   0.78341   Biso      1.000     Cu          0.182122  
         Cu14      1.0000    0.51555   0.13657   0.25162   Biso      1.000     Cu          0.177854  
         Cu15      1.0000    0.86343   0.48445   0.75162   Biso      1.000     Cu          0.177861  
         Cu16      1.0000    0.23465   0.76036   0.38194   Biso      1.000     Cu          0.234866  
         Cu17      1.0000    0.62102   0.48445   0.25162   Biso      1.000     Cu          0.17787   
         Cu18      1.0000    0.47429   0.23964   0.11806   Biso      1.000     Cu          0.234819  
         Cu19      1.0000    0.37898   0.86343   0.24838   Biso      1.000     Cu          0.177853  
         Cu20      1.0000    0.66667   0.33333   0.28341   Biso      1.000     Cu          0.182127  
         Cu21      1.0000    0.76036   0.52571   0.61806   Biso      1.000     Cu          0.234817  
         Cu22      1.0000    0.48445   0.62102   0.24838   Biso      1.000     Cu          0.177883  
         Cu23      1.0000    0.33333   0.66667   0.71659   Biso      1.000     Cu          0.182127  
         Cu24      1.0000    0.52571   0.76535   0.38194   Biso      1.000     Cu          0.234819  
         Cu25      1.0000    0.76036   0.23465   0.11806   Biso      1.000     Cu          0.234865  
         Cu26      1.0000    0.86343   0.37898   0.25162   Biso      1.000     Cu          0.177852  
         Cu27      1.0000    0.33333   0.66667   0.21659   Biso      1.000     Cu          0.182123  
         Cu28      1.0000    0.76535   0.52571   0.11806   Biso      1.000     Cu          0.234821  
         H1        1.0000    0.15700   0.74170   0.10200   Biso      1.000     H          0.123654  
         H2        1.0000    0.67340   0.67800   0.85040   Biso      1.000     H          0.091709  
         H3        1.0000    0.74170   0.58470   0.89800   Biso      1.000     H          0.123654  
         H4        1.0000    0.16470   0.72010   0.99660   Biso      1.000     H          0.10481   
         H5        1.0000    0.52760   0.67320   0.00160   Biso      1.000     H          0.098557  
         H6        1.0000    0.00460   0.67800   0.35040   Biso      1.000     H          0.091708  
         H7        1.0000    0.84300   0.58470   0.39800   Biso      1.000     H          0.123654  
         H8        1.0000    0.83530   0.55540   0.50340   Biso      1.000     H          0.10481   
         H9        1.0000    0.47240   0.32680   0.99840   Biso      1.000     H          0.098557  
         H10       1.0000    0.83530   0.27990   0.00340   Biso      1.000     H          0.10481   
         H11       1.0000    0.84300   0.25830   0.89800   Biso      1.000     H          0.123654  
         H12       1.0000    0.00460   0.32660   0.85040   Biso      1.000     H          0.091708  
         H13       1.0000    0.32660   0.32200   0.14960   Biso      1.000     H          0.091709  
         H14       1.0000    0.14560   0.47240   0.00160   Biso      1.000     H          0.098556  
         H15       1.0000    0.25830   0.41530   0.10200   Biso      1.000     H          0.123654  
         H16       1.0000    0.27990   0.44460   0.99660   Biso      1.000     H          0.104812  
         H17       1.0000    0.58470   0.84300   0.10200   Biso      1.000     H          0.123654  
         H18       1.0000    0.67800   0.00460   0.14960   Biso      1.000     H          0.091708  
         H19       1.0000    0.55540   0.83530   0.99660   Biso      1.000     H          0.10481   
         H20       1.0000    0.99540   0.67340   0.14960   Biso      1.000     H          0.091708  
         H21       1.0000    0.67800   0.67340   0.64960   Biso      1.000     H          0.091708  
         H22       1.0000    0.67320   0.52760   0.49840   Biso      1.000     H          0.098558  
         H23       1.0000    0.32680   0.47240   0.50160   Biso      1.000     H          0.098558  
         H24       1.0000    0.58470   0.74170   0.60200   Biso      1.000     H          0.123654  
         H25       1.0000    0.55540   0.72010   0.49660   Biso      1.000     H          0.104812  
         H26       1.0000    0.32200   0.32660   0.35040   Biso      1.000     H          0.091708  
         H27       1.0000    0.27990   0.83530   0.49660   Biso      1.000     H          0.104811  
         H28       1.0000    0.25830   0.84300   0.60200   Biso      1.000     H          0.123654  
         H29       1.0000    0.72010   0.16470   0.50340   Biso      1.000     H          0.10481   
         H30       1.0000    0.32660   0.00460   0.64960   Biso      1.000     H          0.091708  
         H31       1.0000    0.74170   0.15700   0.39800   Biso      1.000     H          0.123654  
         H32       1.0000    0.47240   0.14560   0.49840   Biso      1.000     H          0.098557  
         H33       1.0000    0.85440   0.32680   0.49840   Biso      1.000     H          0.098556  
         H34       1.0000    0.72010   0.55540   0.00340   Biso      1.000     H          0.104812  
         H35       1.0000    0.44460   0.27990   0.50340   Biso      1.000     H          0.104812  
         H36       1.0000    0.41530   0.25830   0.39800   Biso      1.000     H          0.123654  
         H37       1.0000    0.67340   0.99540   0.35040   Biso      1.000     H          0.091708  
         H38       1.0000    0.85440   0.52760   0.99840   Biso      1.000     H          0.098556  
         H39       1.0000    0.14560   0.67320   0.50160   Biso      1.000     H          0.098556  
         H40       1.0000    0.52760   0.85440   0.50160   Biso      1.000     H          0.098557  
         H41       1.0000    0.32680   0.85440   0.00160   Biso      1.000     H          0.098555  
         H42       1.0000    0.32200   0.99540   0.85040   Biso      1.000     H          0.091708  
         H43       1.0000    0.67320   0.14560   0.99840   Biso      1.000     H          0.098555  
         H44       1.0000    0.44460   0.16470   0.00340   Biso      1.000     H          0.10481   
         H45       1.0000    0.16470   0.44460   0.49660   Biso      1.000     H          0.104811  
         H46       1.0000    0.15700   0.41530   0.60200   Biso      1.000     H          0.123654  
         H47       1.0000    0.99540   0.32200   0.64960   Biso      1.000     H          0.091708  
         H48       1.0000    0.41530   0.15700   0.89800   Biso      1.000     H          0.123654  
         I1        1.0000    0.47389   0.18518   0.74093   Biso      1.000     I          -0.234609           
         I2        1.0000    0.71129   0.52611   0.74093   Biso      1.000     I          -0.234601           
         I3        1.0000    0.33333   0.66667   0.43012   Biso      1.000     I          -0.362547           
         I4        1.0000    0.33333   0.66667   0.93012   Biso      1.000     I          -0.362544           
         I5        1.0000    0.81482   0.28871   0.74093   Biso      1.000     I          -0.234607           
         I6        1.0000    0.66667   0.33333   0.06988   Biso      1.000     I          -0.362544           
         I7        1.0000    0.71129   0.18518   0.24093   Biso      1.000     I          -0.2346   
         I8        1.0000    0.28871   0.47389   0.25907   Biso      1.000     I          -0.234602           
         I9        1.0000    0.52611   0.81482   0.25907   Biso      1.000     I          -0.234609           
         I10       1.0000    0.18518   0.47389   0.75907   Biso      1.000     I          -0.234602           
         I11       1.0000    0.47389   0.28871   0.24093   Biso      1.000     I          -0.234594           
         I12       1.0000    0.28871   0.81482   0.75907   Biso      1.000     I          -0.2346   
         I13       1.0000    0.18518   0.71129   0.25907   Biso      1.000     I          -0.234607           
         I14       1.0000    0.81482   0.52611   0.24093   Biso      1.000     I          -0.234602           
         I15       1.0000    0.66667   0.33333   0.56988   Biso      1.000     I          -0.362547           
         I16       1.0000    0.52611   0.71129   0.75907   Biso      1.000     I          -0.234594           
         N1        1.0000    0.45690   0.05250   0.32880   Biso      1.000     N          -0.005946           
         N2        1.0000    0.31490   0.90930   0.92170   Biso      1.000     N          -0.176064           
         N3        1.0000    0.95060   0.56030   0.67580   Biso      1.000     N          -0.022827           
         N4        1.0000    0.05250   0.59560   0.67120   Biso      1.000     N          -0.005907           
         N5        1.0000    0.46060   0.08240   0.38770   Biso      1.000     N          -0.266217           
         N6        1.0000    0.08240   0.62180   0.61230   Biso      1.000     N          -0.266221           
         N7        1.0000    0.34820   0.91240   0.37930   Biso      1.000     N          -0.201406           
         N8        1.0000    0.91240   0.56420   0.62070   Biso      1.000     N          -0.201369           
         N9        1.0000    0.40560   0.09070   0.57830   Biso      1.000     N          -0.176057           
         N10       1.0000    0.39030   0.95060   0.32420   Biso      1.000     N          -0.022763           
         N11       1.0000    0.56420   0.91240   0.87930   Biso      1.000     N          -0.201402           
         N12       1.0000    0.37820   0.91760   0.11230   Biso      1.000     N          -0.266236           
         N13       1.0000    0.43580   0.08760   0.12070   Biso      1.000     N          -0.201402           
         N14       1.0000    0.40440   0.94750   0.17120   Biso      1.000     N          -0.005923           
         N15       1.0000    0.43970   0.04940   0.17580   Biso      1.000     N          -0.022766           
         N16       1.0000    0.59440   0.68510   0.92170   Biso      1.000     N          -0.176058           
         N17       1.0000    0.65180   0.56420   0.12070   Biso      1.000     N          -0.201404           
         N18       1.0000    0.53940   0.62180   0.11230   Biso      1.000     N          -0.266236           
         N19       1.0000    0.54310   0.59560   0.17120   Biso      1.000     N          -0.005928           
         N20       1.0000    0.60970   0.56030   0.17580   Biso      1.000     N          -0.02277  
         N21       1.0000    0.09070   0.40560   0.92170   Biso      1.000     N          -0.176058           
         N22       1.0000    0.91240   0.34820   0.12070   Biso      1.000     N          -0.201407           
         N23       1.0000    0.08240   0.46060   0.11230   Biso      1.000     N          -0.266236           
         N24       1.0000    0.05250   0.45690   0.17120   Biso      1.000     N          -0.005924           
         N25       1.0000    0.95060   0.39030   0.17580   Biso      1.000     N          -0.022765           
         N26       1.0000    0.09070   0.68510   0.42170   Biso      1.000     N          -0.176064           
         N27       1.0000    0.56030   0.60970   0.32420   Biso      1.000     N          -0.022835           
         N28       1.0000    0.56420   0.65180   0.37930   Biso      1.000     N          -0.201371           
         N29       1.0000    0.62180   0.53940   0.38770   Biso      1.000     N          -0.26624  
         N30       1.0000    0.62180   0.08240   0.88770   Biso      1.000     N          -0.266236           
         N31       1.0000    0.59560   0.05250   0.82880   Biso      1.000     N          -0.005924           
         N32       1.0000    0.56030   0.95060   0.82420   Biso      1.000     N          -0.022765           
         N33       1.0000    0.40560   0.31490   0.07830   Biso      1.000     N          -0.176058           
         N34       1.0000    0.34820   0.43580   0.87930   Biso      1.000     N          -0.201404           
         N35       1.0000    0.46060   0.37820   0.88770   Biso      1.000     N          -0.266236           
         N36       1.0000    0.45690   0.40440   0.82880   Biso      1.000     N          -0.005928           
         N37       1.0000    0.39030   0.43970   0.82420   Biso      1.000     N          -0.02277  
         N38       1.0000    0.60970   0.04940   0.67580   Biso      1.000     N          -0.022827           
         N39       1.0000    0.54310   0.94750   0.67120   Biso      1.000     N          -0.005908           
         N40       1.0000    0.53940   0.91760   0.61230   Biso      1.000     N          -0.266221           
         N41       1.0000    0.65180   0.08760   0.62070   Biso      1.000     N          -0.201374           
         N42       1.0000    0.59440   0.90930   0.42170   Biso      1.000     N          -0.176057           
         N43       1.0000    0.90930   0.59440   0.07830   Biso      1.000     N          -0.176058           
         N44       1.0000    0.08760   0.65180   0.87930   Biso      1.000     N          -0.201407           
         N45       1.0000    0.91760   0.53940   0.88770   Biso      1.000     N          -0.266236           
         N46       1.0000    0.94750   0.54310   0.82880   Biso      1.000     N          -0.005925           
         N47       1.0000    0.90930   0.31490   0.57830   Biso      1.000     N          -0.176063           
         N48       1.0000    0.08760   0.43580   0.37930   Biso      1.000     N          -0.201402           
         N49       1.0000    0.91760   0.37820   0.38770   Biso      1.000     N          -0.266236           
         N50       1.0000    0.94750   0.40440   0.32880   Biso      1.000     N          -0.005924           
         N51       1.0000    0.04940   0.43970   0.32420   Biso      1.000     N          -0.022766           
         N52       1.0000    0.43970   0.39030   0.67580   Biso      1.000     N          -0.022832           
         N53       1.0000    0.40440   0.45690   0.67120   Biso      1.000     N          -0.005912           
         N54       1.0000    0.37820   0.46060   0.61230   Biso      1.000     N          -0.266221           
         N55       1.0000    0.43580   0.34820   0.62070   Biso      1.000     N          -0.20137  
         N56       1.0000    0.31490   0.40560   0.42170   Biso      1.000     N          -0.176057           
         N57       1.0000    0.68510   0.59440   0.57830   Biso      1.000     N          -0.176057           
         N58       1.0000    0.68510   0.09070   0.07830   Biso      1.000     N          -0.176064           
         N59       1.0000    0.59560   0.54310   0.32880   Biso      1.000     N          -0.005891           
         N60       1.0000    0.04940   0.60970   0.82420   Biso      1.000     N          -0.022765 