
##########################################################################
#               Crystallographic Information Format file
#               Produced by PyCifRW module
#
#  This is a CIF file.  CIF has been adopted by the International
#  Union of Crystallography as the standard for data archiving and
#  transmission.
#
#  For information on this file format, follow the CIF links at
#  http://www.iucr.org
##########################################################################

data_image0

_cell_length_a                          12.1455
_cell_length_b                          17.0072
_cell_length_c                          25.5937
_cell_angle_alpha                       102.385
_cell_angle_beta                        90
_cell_angle_gamma                       90
_symmetry_space_group_name_H-M          'P 1'
_symmetry_int_tables_number             1
loop_
  _symmetry_equiv_pos_as_xyz
         'x, y, z' 
loop_
  _atom_site_label
  _atom_site_occupancy
  _atom_site_fract_x
  _atom_site_fract_y
  _atom_site_fract_z
  _atom_site_thermal_displace_type
  _atom_site_B_iso_or_equiv
  _atom_site_type_symbol
  _atom_site_charge
         C1        1.0000    0.33320   0.75340   0.44110   Biso      1.000     C          -0.110819           
         C2        1.0000    0.05390   0.94710   0.76990   Biso      1.000     C          -0.123115           
         C3        1.0000    0.10280   0.98790   0.73670   Biso      1.000     C          -0.089507           
         C4        1.0000    0.84670   0.40780   0.02640   Biso      1.000     C          0.652676  
         C5        1.0000    0.60090   0.14330   0.98860   Biso      1.000     C          0.689256  
         C6        1.0000    0.77090   0.34150   0.00180   Biso      1.000     C          -0.129156           
         C7        1.0000    0.73100   0.32290   0.95070   Biso      1.000     C          -0.138099           
         C8        1.0000    0.66680   0.25340   0.94110   Biso      1.000     C          -0.110821           
         C9        1.0000    0.65880   0.21940   0.98440   Biso      1.000     C          -0.112565           
         C10       1.0000    0.33910   0.10280   0.01500   Biso      1.000     C          0.663372  
         C11       1.0000    0.12090   0.94230   0.81400   Biso      1.000     C          -0.10618  
         C12       1.0000    0.11590   0.35500   0.98110   Biso      1.000     C          0.680724  
         C13       1.0000    0.29210   0.16950   0.93740   Biso      1.000     C          -0.093487           
         C14       1.0000    0.23470   0.23720   0.92900   Biso      1.000     C          -0.108417           
         C15       1.0000    0.18350   0.27920   0.97360   Biso      1.000     C          -0.118532           
         C16       1.0000    0.68970   0.47980   0.35090   Biso      1.000     C          0.588728  
         C17       1.0000    0.94310   0.50340   0.18570   Biso      1.000     C          0.612114  
         C18       1.0000    0.78120   0.47900   0.31300   Biso      1.000     C          -0.110074           
         C19       1.0000    0.87910   0.44230   0.31400   Biso      1.000     C          -0.106161           
         C20       1.0000    0.94610   0.44710   0.26990   Biso      1.000     C          -0.123117           
         C21       1.0000    0.89720   0.48790   0.23670   Biso      1.000     C          -0.089507           
         C22       1.0000    0.28680   0.16200   0.98890   Biso      1.000     C          -0.114874           
         C23       1.0000    0.84670   0.09220   0.47360   Biso      1.000     C          0.652676  
         C24       1.0000    0.21880   0.97900   0.81300   Biso      1.000     C          -0.110054           
         C25       1.0000    0.31030   0.97980   0.85090   Biso      1.000     C          0.588726  
         C26       1.0000    0.76530   0.76280   0.07100   Biso      1.000     C          -0.108417           
         C27       1.0000    0.81650   0.72080   0.02640   Biso      1.000     C          -0.118532           
         C28       1.0000    0.31030   0.52020   0.64910   Biso      1.000     C          0.588728  
         C29       1.0000    0.05690   0.49660   0.81430   Biso      1.000     C          0.612114  
         C30       1.0000    0.21880   0.52100   0.68700   Biso      1.000     C          -0.110074           
         C31       1.0000    0.12090   0.55770   0.68600   Biso      1.000     C          -0.106161           
         C32       1.0000    0.05390   0.55290   0.73010   Biso      1.000     C          -0.123117           
         C33       1.0000    0.10280   0.51210   0.76330   Biso      1.000     C          -0.089507           
         C34       1.0000    0.15330   0.90780   0.52640   Biso      1.000     C          0.652675  
         C35       1.0000    0.05690   0.00340   0.68570   Biso      1.000     C          0.612114  
         C36       1.0000    0.39910   0.64330   0.48860   Biso      1.000     C          0.689256  
         C37       1.0000    0.26900   0.82290   0.45070   Biso      1.000     C          -0.138107           
         C38       1.0000    0.88410   0.64500   0.01890   Biso      1.000     C          0.680724  
         C39       1.0000    0.34120   0.71940   0.48440   Biso      1.000     C          -0.112565           
         C40       1.0000    0.66090   0.60280   0.51500   Biso      1.000     C          0.663374  
         C41       1.0000    0.88410   0.85500   0.48110   Biso      1.000     C          0.680724  
         C42       1.0000    0.71320   0.66200   0.48890   Biso      1.000     C          -0.114888           
         C43       1.0000    0.70790   0.66950   0.43740   Biso      1.000     C          -0.093474           
         C44       1.0000    0.76530   0.73720   0.42900   Biso      1.000     C          -0.108418           
         C45       1.0000    0.81650   0.77920   0.47360   Biso      1.000     C          -0.118532           
         C46       1.0000    0.22910   0.84150   0.50180   Biso      1.000     C          -0.129148           
         C47       1.0000    0.60090   0.35670   0.51140   Biso      1.000     C          0.689257  
         C48       1.0000    0.77090   0.15850   0.49820   Biso      1.000     C          -0.129156           
         C49       1.0000    0.73100   0.17710   0.54930   Biso      1.000     C          -0.1381   
         C50       1.0000    0.15330   0.59220   0.97360   Biso      1.000     C          0.652676  
         C51       1.0000    0.39910   0.85670   0.01140   Biso      1.000     C          0.689256  
         C52       1.0000    0.22910   0.65850   0.99820   Biso      1.000     C          -0.129156           
         C53       1.0000    0.26900   0.67710   0.04930   Biso      1.000     C          -0.138099           
         C54       1.0000    0.33320   0.74660   0.05890   Biso      1.000     C          -0.110821           
         C55       1.0000    0.34120   0.78060   0.01560   Biso      1.000     C          -0.112565           
         C56       1.0000    0.66090   0.89720   0.98500   Biso      1.000     C          0.663373  
         C57       1.0000    0.70790   0.83050   0.06260   Biso      1.000     C          -0.093487           
         C58       1.0000    0.89720   0.01210   0.26330   Biso      1.000     C          -0.089531           
         C59       1.0000    0.94610   0.05290   0.23010   Biso      1.000     C          -0.123092           
         C60       1.0000    0.87910   0.05770   0.18600   Biso      1.000     C          -0.106183           
         C61       1.0000    0.71320   0.83800   0.01110   Biso      1.000     C          -0.114875           
         C62       1.0000    0.94310   0.99660   0.31430   Biso      1.000     C          0.612116  
         C63       1.0000    0.18350   0.22080   0.52640   Biso      1.000     C          -0.11854  
         C64       1.0000    0.29210   0.33050   0.56260   Biso      1.000     C          -0.093488           
         C65       1.0000    0.28680   0.33800   0.51110   Biso      1.000     C          -0.114875           
         C66       1.0000    0.11590   0.14500   0.51890   Biso      1.000     C          0.680725  
         C67       1.0000    0.23470   0.26280   0.57100   Biso      1.000     C          -0.108409           
         C68       1.0000    0.65880   0.28060   0.51560   Biso      1.000     C          -0.112577           
         C69       1.0000    0.66680   0.24660   0.55890   Biso      1.000     C          -0.11081  
         C70       1.0000    0.68970   0.02020   0.14910   Biso      1.000     C          0.588726  
         C71       1.0000    0.33910   0.39720   0.48500   Biso      1.000     C          0.663373  
         C72       1.0000    0.78120   0.02100   0.18700   Biso      1.000     C          -0.110054           
         H1        1.0000    0.01610   0.42460   0.26430   Biso      1.000     H          0.138603  
         H2        1.0000    0.01610   0.07540   0.23570   Biso      1.000     H          0.138601  
         H3        1.0000    0.90030   0.08350   0.15900   Biso      1.000     H          0.139347  
         H4        1.0000    0.23190   0.24800   0.60390   Biso      1.000     H          0.142209  
         H5        1.0000    0.32950   0.36620   0.58940   Biso      1.000     H          0.13339   
         H6        1.0000    0.63300   0.26750   0.59150   Biso      1.000     H          0.13999   
         H7        1.0000    0.74500   0.14660   0.57470   Biso      1.000     H          0.110099  
         H8        1.0000    0.23190   0.25200   0.89610   Biso      1.000     H          0.14221   
         H9        1.0000    0.32950   0.13380   0.91060   Biso      1.000     H          0.13339   
         H10       1.0000    0.63300   0.23250   0.90850   Biso      1.000     H          0.13999   
         H11       1.0000    0.74500   0.35340   0.92530   Biso      1.000     H          0.110099  
         H12       1.0000    0.98390   0.92460   0.76430   Biso      1.000     H          0.138603  
         H13       1.0000    0.09970   0.91650   0.84100   Biso      1.000     H          0.139347  
         H14       1.0000    0.76810   0.75200   0.39610   Biso      1.000     H          0.14221   
         H15       1.0000    0.36700   0.73250   0.40850   Biso      1.000     H          0.13999   
         H16       1.0000    0.25500   0.85340   0.42530   Biso      1.000     H          0.1101    
         H17       1.0000    0.98390   0.57540   0.73570   Biso      1.000     H          0.138603  
         H18       1.0000    0.09970   0.58350   0.65900   Biso      1.000     H          0.139345  
         H19       1.0000    0.76810   0.74800   0.10390   Biso      1.000     H          0.14221   
         H20       1.0000    0.67050   0.86620   0.08940   Biso      1.000     H          0.13339   
         H21       1.0000    0.36700   0.76750   0.09150   Biso      1.000     H          0.13999   
         H22       1.0000    0.25500   0.64660   0.07470   Biso      1.000     H          0.110099  
         H23       1.0000    0.90030   0.41650   0.34100   Biso      1.000     H          0.139345  
         H24       1.0000    0.67050   0.63380   0.41060   Biso      1.000     H          0.13339   
         Nd1       1.0000    0.02740   0.98537   0.41899   Biso      1.000     Nd          2.072306  
         Nd2       1.0000    0.49908   0.96075   0.91718   Biso      1.000     Nd          2.092625  
         Nd3       1.0000    0.97260   0.48537   0.91899   Biso      1.000     Nd          2.072306  
         Nd4       1.0000    0.49908   0.53925   0.58282   Biso      1.000     Nd          2.092625  
         Nd5       1.0000    0.97260   0.01463   0.58101   Biso      1.000     Nd          2.072306  
         Nd6       1.0000    0.50092   0.03925   0.08282   Biso      1.000     Nd          2.092625  
         Nd7       1.0000    0.02740   0.51463   0.08101   Biso      1.000     Nd          2.072306  
         Nd8       1.0000    0.50092   0.46075   0.41718   Biso      1.000     Nd          2.092625  
         O1        1.0000    0.90700   0.88080   0.43990   Biso      1.000     O          -0.653792           
         O2        1.0000    0.91120   0.88602   0.52792   Biso      1.000     O          -0.67313  
         O3        1.0000    0.39890   0.01740   0.84570   Biso      1.000     O          -0.690863           
         O4        1.0000    0.29950   0.94080   0.88730   Biso      1.000     O          -0.617415           
         O5        1.0000    0.97160   0.96610   0.66650   Biso      1.000     O          -0.67686  
         O6        1.0000    0.57990   0.09420   0.94550   Biso      1.000     O          -0.67324  
         O7        1.0000    0.88780   0.45145   0.99755   Biso      1.000     O          -0.771901           
         O8        1.0000    0.86960   0.41670   0.07480   Biso      1.000     O          -0.561321           
         O9        1.0000    0.61110   0.54240   0.48800   Biso      1.000     O          -0.716299           
         O10       1.0000    0.57970   0.13490   0.03490   Biso      1.000     O          -0.664104           
         O11       1.0000    0.33490   0.11440   0.06530   Biso      1.000     O          -0.677506           
         O12       1.0000    0.10480   0.05190   0.66280   Biso      1.000     O          -0.638219           
         O13       1.0000    0.66510   0.61440   0.56530   Biso      1.000     O          -0.677506           
         O14       1.0000    0.11220   0.95145   0.49755   Biso      1.000     O          -0.771901           
         O15       1.0000    0.42010   0.59420   0.44550   Biso      1.000     O          -0.67324  
         O16       1.0000    0.13040   0.91670   0.57480   Biso      1.000     O          -0.561321           
         O17       1.0000    0.38890   0.04240   0.98800   Biso      1.000     O          -0.716299           
         O18       1.0000    0.10480   0.44810   0.83720   Biso      1.000     O          -0.638219           
         O19       1.0000    0.97160   0.53390   0.83350   Biso      1.000     O          -0.67686  
         O20       1.0000    0.29950   0.55920   0.61270   Biso      1.000     O          -0.617415           
         O21       1.0000    0.39890   0.48260   0.65430   Biso      1.000     O          -0.690862           
         O22       1.0000    0.91120   0.61398   0.97208   Biso      1.000     O          -0.67313  
         O23       1.0000    0.90700   0.61920   0.06010   Biso      1.000     O          -0.653792           
         O24       1.0000    0.61110   0.95760   0.01200   Biso      1.000     O          -0.716299           
         O25       1.0000    0.66510   0.88560   0.93470   Biso      1.000     O          -0.677506           
         O26       1.0000    0.42030   0.86510   0.96510   Biso      1.000     O          -0.664104           
         O27       1.0000    0.42010   0.90580   0.05450   Biso      1.000     O          -0.67324  
         O28       1.0000    0.42030   0.63490   0.53490   Biso      1.000     O          -0.664104           
         O29       1.0000    0.09300   0.38080   0.93990   Biso      1.000     O          -0.653792           
         O30       1.0000    0.70050   0.44080   0.38730   Biso      1.000     O          -0.617415           
         O31       1.0000    0.60110   0.51740   0.34570   Biso      1.000     O          -0.690863           
         O32       1.0000    0.89520   0.94810   0.33720   Biso      1.000     O          -0.638218           
         O33       1.0000    0.08880   0.38602   0.02792   Biso      1.000     O          -0.67313  
         O34       1.0000    0.70050   0.05920   0.11270   Biso      1.000     O          -0.617415           
         O35       1.0000    0.60110   0.98260   0.15430   Biso      1.000     O          -0.690863           
         O36       1.0000    0.08880   0.11398   0.47208   Biso      1.000     O          -0.67313  
         O37       1.0000    0.09300   0.11920   0.56010   Biso      1.000     O          -0.653792           
         O38       1.0000    0.38890   0.45760   0.51200   Biso      1.000     O          -0.716299           
         O39       1.0000    0.02840   0.03390   0.33350   Biso      1.000     O          -0.67686  
         O40       1.0000    0.57970   0.36510   0.46510   Biso      1.000     O          -0.664104           
         O41       1.0000    0.33490   0.38560   0.43470   Biso      1.000     O          -0.677506           
         O42       1.0000    0.13040   0.58330   0.92520   Biso      1.000     O          -0.561321           
         O43       1.0000    0.02840   0.46610   0.16650   Biso      1.000     O          -0.67686  
         O44       1.0000    0.11220   0.54855   0.00245   Biso      1.000     O          -0.771901           
         O45       1.0000    0.88780   0.04855   0.50245   Biso      1.000     O          -0.771901           
         O46       1.0000    0.86960   0.08330   0.42520   Biso      1.000     O          -0.561321           
         O47       1.0000    0.57990   0.40580   0.55450   Biso      1.000     O          -0.67324  
         O48       1.0000    0.89520   0.55190   0.16280   Biso      1.000     O          -0.638219           
         S1        1.0000    0.27527   0.72498   0.96174   Biso      1.000     S          0.203478  
         S2        1.0000    0.79009   0.76159   0.97243   Biso      1.000     S          0.158685  
         S3        1.0000    0.23017   0.47787   0.74148   Biso      1.000     S          0.151857  
         S4        1.0000    0.79009   0.73841   0.52757   Biso      1.000     S          0.158687  
         S5        1.0000    0.23017   0.02213   0.75852   Biso      1.000     S          0.151855  
         S6        1.0000    0.72473   0.27502   0.03826   Biso      1.000     S          0.203478  
         S7        1.0000    0.20991   0.23841   0.02757   Biso      1.000     S          0.158685  
         S8        1.0000    0.76983   0.52213   0.25852   Biso      1.000     S          0.151857  
         S9        1.0000    0.72473   0.22498   0.46174   Biso      1.000     S          0.203479  
         S10       1.0000    0.20991   0.26159   0.47243   Biso      1.000     S          0.158686  
         S11       1.0000    0.76983   0.97787   0.24148   Biso      1.000     S          0.151858  
         S12       1.0000    0.27527   0.77502   0.53826   Biso      1.000     S          0.203477 