
##########################################################################
#               Crystallographic Information Format file
#               Produced by PyCifRW module
#
#  This is a CIF file.  CIF has been adopted by the International
#  Union of Crystallography as the standard for data archiving and
#  transmission.
#
#  For information on this file format, follow the CIF links at
#  http://www.iucr.org
##########################################################################

data_image0

_cell_length_a                          12.1799
_cell_length_b                          16.9836
_cell_length_c                          25.7802
_cell_angle_alpha                       102.109
_cell_angle_beta                        90
_cell_angle_gamma                       90
_symmetry_space_group_name_H-M          'P 1'
_symmetry_int_tables_number             1
loop_
  _symmetry_equiv_pos_as_xyz
         'x, y, z' 
loop_
  _atom_site_label
  _atom_site_occupancy
  _atom_site_fract_x
  _atom_site_fract_y
  _atom_site_fract_z
  _atom_site_thermal_displace_type
  _atom_site_B_iso_or_equiv
  _atom_site_type_symbol
  _atom_site_charge
         C1        1.0000    0.73480   0.24010   0.43000   Biso      1.000     C          -0.107457           
         C2        1.0000    0.26000   0.30610   0.44780   Biso      1.000     C          -0.14340799999999998          
         C3        1.0000    0.28000   0.33570   0.50040   Biso      1.000     C          -0.122323           
         C4        1.0000    0.16000   0.60230   0.01480   Biso      1.000     C          0.66372   
         C5        1.0000    0.38120   0.85700   0.98270   Biso      1.000     C          0.682049  
         C6        1.0000    0.21340   0.66290   0.98920   Biso      1.000     C          -0.114836           
         C7        1.0000    0.20900   0.67110   0.93760   Biso      1.000     C          -0.101859           
         C8        1.0000    0.26520   0.74010   0.93000   Biso      1.000     C          -0.107458           
         C9        1.0000    0.31480   0.78200   0.97480   Biso      1.000     C          -0.120219           
         C10       1.0000    0.81070   0.97920   0.35060   Biso      1.000     C          0.596959  
         C11       1.0000    0.19490   0.23460   0.43890   Biso      1.000     C          -0.112696           
         C12       1.0000    0.56310   0.99960   0.18440   Biso      1.000     C          0.622384  
         C13       1.0000    0.62210   0.93800   0.31220   Biso      1.000     C          -0.11099400000000001          
         C14       1.0000    0.55870   0.94270   0.26740   Biso      1.000     C          -0.12053299999999999          
         C15       1.0000    0.60670   0.98390   0.23470   Biso      1.000     C          -0.091779           
         C16       1.0000    0.89730   0.64150   0.98880   Biso      1.000     C          0.702785  
         C17       1.0000    0.65030   0.90430   0.02460   Biso      1.000     C          0.664856  
         C18       1.0000    0.83410   0.71340   0.98410   Biso      1.000     C          -0.111355           
         C19       1.0000    0.80510   0.73460   0.93890   Biso      1.000     C          -0.11266500000000002          
         C20       1.0000    0.74000   0.80610   0.94780   Biso      1.000     C          -0.14341199999999998          
         C21       1.0000    0.72000   0.83570   0.00040   Biso      1.000     C          -0.122322           
         C22       1.0000    0.72020   0.97710   0.31240   Biso      1.000     C          -0.112319           
         C23       1.0000    0.16000   0.89770   0.48520   Biso      1.000     C          0.66372   
         C24       1.0000    0.16590   0.21340   0.48410   Biso      1.000     C          -0.111323           
         C25       1.0000    0.10270   0.14150   0.48880   Biso      1.000     C          0.702782  
         C26       1.0000    0.44130   0.05730   0.73260   Biso      1.000     C          -0.12053399999999999          
         C27       1.0000    0.39330   0.01610   0.76530   Biso      1.000     C          -0.091779           
         C28       1.0000    0.10270   0.35850   0.01120   Biso      1.000     C          0.702785  
         C29       1.0000    0.34970   0.09570   0.97540   Biso      1.000     C          0.664856  
         C30       1.0000    0.16590   0.28660   0.01590   Biso      1.000     C          -0.111355           
         C31       1.0000    0.19490   0.26540   0.06110   Biso      1.000     C          -0.11266500000000002          
         C32       1.0000    0.26000   0.19390   0.05220   Biso      1.000     C          -0.14341199999999998          
         C33       1.0000    0.28000   0.16430   0.99960   Biso      1.000     C          -0.122322           
         C34       1.0000    0.84000   0.10230   0.51480   Biso      1.000     C          0.663719  
         C35       1.0000    0.34970   0.40430   0.52460   Biso      1.000     C          0.664856  
         C36       1.0000    0.61880   0.35700   0.48270   Biso      1.000     C          0.682049  
         C37       1.0000    0.79100   0.17110   0.43760   Biso      1.000     C          -0.101867           
         C38       1.0000    0.43690   0.00040   0.81560   Biso      1.000     C          0.6223850000000001  
         C39       1.0000    0.68520   0.28200   0.47480   Biso      1.000     C          -0.12022000000000001          
         C40       1.0000    0.18930   0.47920   0.85060   Biso      1.000     C          0.59696   
         C41       1.0000    0.43690   0.49960   0.68440   Biso      1.000     C          0.6223850000000001  
         C42       1.0000    0.27980   0.47710   0.81240   Biso      1.000     C          -0.112326           
         C43       1.0000    0.37790   0.43800   0.81220   Biso      1.000     C          -0.11098699999999999          
         C44       1.0000    0.44130   0.44270   0.76740   Biso      1.000     C          -0.12053399999999999          
         C45       1.0000    0.39330   0.48390   0.73470   Biso      1.000     C          -0.091779           
         C46       1.0000    0.78660   0.16290   0.48920   Biso      1.000     C          -0.114829           
         C47       1.0000    0.38120   0.64300   0.51730   Biso      1.000     C          0.68205   
         C48       1.0000    0.21340   0.83710   0.51080   Biso      1.000     C          -0.114836           
         C49       1.0000    0.20900   0.82890   0.56240   Biso      1.000     C          -0.10186  
         C50       1.0000    0.84000   0.39770   0.98520   Biso      1.000     C          0.66372   
         C51       1.0000    0.61880   0.14300   0.01730   Biso      1.000     C          0.682049  
         C52       1.0000    0.78660   0.33710   0.01080   Biso      1.000     C          -0.114836           
         C53       1.0000    0.79100   0.32890   0.06240   Biso      1.000     C          -0.101859           
         C54       1.0000    0.73480   0.25990   0.07000   Biso      1.000     C          -0.107458           
         C55       1.0000    0.68520   0.21800   0.02520   Biso      1.000     C          -0.12022000000000001          
         C56       1.0000    0.18930   0.02080   0.64940   Biso      1.000     C          0.596959  
         C57       1.0000    0.37790   0.06200   0.68780   Biso      1.000     C          -0.11099400000000001          
         C58       1.0000    0.72000   0.66430   0.49960   Biso      1.000     C          -0.12233599999999999          
         C59       1.0000    0.74000   0.69390   0.55220   Biso      1.000     C          -0.143395           
         C60       1.0000    0.80510   0.76540   0.56110   Biso      1.000     C          -0.112698           
         C61       1.0000    0.27980   0.02290   0.68760   Biso      1.000     C          -0.112319           
         C62       1.0000    0.65030   0.59570   0.47540   Biso      1.000     C          0.664858  
         C63       1.0000    0.60670   0.51610   0.26530   Biso      1.000     C          -0.091806           
         C64       1.0000    0.62210   0.56200   0.18780   Biso      1.000     C          -0.110997           
         C65       1.0000    0.72020   0.52290   0.18760   Biso      1.000     C          -0.112319           
         C66       1.0000    0.56310   0.50040   0.31560   Biso      1.000     C          0.622388  
         C67       1.0000    0.55870   0.55730   0.23260   Biso      1.000     C          -0.12050699999999999          
         C68       1.0000    0.31480   0.71800   0.52520   Biso      1.000     C          -0.120227           
         C69       1.0000    0.26520   0.75990   0.57000   Biso      1.000     C          -0.107451           
         C70       1.0000    0.89730   0.85850   0.51120   Biso      1.000     C          0.702782  
         C71       1.0000    0.81070   0.52080   0.14940   Biso      1.000     C          0.59696   
         C72       1.0000    0.83410   0.78660   0.51590   Biso      1.000     C          -0.111323           
         H1        1.0000    0.71470   0.83000   0.92080   Biso      1.000     H          0.106458  
         H2        1.0000    0.71470   0.67000   0.57920   Biso      1.000     H          0.106457  
         H3        1.0000    0.82500   0.79400   0.59460   Biso      1.000     H          0.140087  
         H4        1.0000    0.48970   0.58080   0.23900   Biso      1.000     H          0.136376  
         H5        1.0000    0.60000   0.58860   0.16150   Biso      1.000     H          0.14105399999999998           
         H6        1.0000    0.26830   0.74420   0.60240   Biso      1.000     H          0.142362  
         H7        1.0000    0.17320   0.86470   0.58930   Biso      1.000     H          0.13681300000000002           
         H8        1.0000    0.48970   0.91920   0.26100   Biso      1.000     H          0.136378  
         H9        1.0000    0.60000   0.91140   0.33850   Biso      1.000     H          0.14105399999999998           
         H10       1.0000    0.26830   0.75580   0.89760   Biso      1.000     H          0.14236300000000002           
         H11       1.0000    0.17320   0.63530   0.91070   Biso      1.000     H          0.13681300000000002           
         H12       1.0000    0.28530   0.33000   0.42080   Biso      1.000     H          0.106458  
         H13       1.0000    0.17500   0.20600   0.40540   Biso      1.000     H          0.140087  
         H14       1.0000    0.51030   0.41920   0.76100   Biso      1.000     H          0.136378  
         H15       1.0000    0.73170   0.25580   0.39760   Biso      1.000     H          0.14236300000000002           
         H16       1.0000    0.82680   0.13530   0.41070   Biso      1.000     H          0.13681400000000002           
         H17       1.0000    0.28530   0.17000   0.07920   Biso      1.000     H          0.106458  
         H18       1.0000    0.17500   0.29400   0.09460   Biso      1.000     H          0.140085  
         H19       1.0000    0.51030   0.08080   0.73900   Biso      1.000     H          0.136378  
         H20       1.0000    0.40000   0.08860   0.66150   Biso      1.000     H          0.14105399999999998           
         H21       1.0000    0.73170   0.24420   0.10240   Biso      1.000     H          0.14236300000000002           
         H22       1.0000    0.82680   0.36470   0.08930   Biso      1.000     H          0.13681300000000002           
         H23       1.0000    0.82500   0.70600   0.90540   Biso      1.000     H          0.140085  
         H24       1.0000    0.40000   0.41140   0.83850   Biso      1.000     H          0.14105299999999998           
         Nd1       1.0000    0.47639   0.48566   0.41848   Biso      1.000     Nd          2.077325  
         Nd2       1.0000    0.00155   0.46057   0.91749   Biso      1.000     Nd          2.091603  
         Nd3       1.0000    0.52361   0.98566   0.91848   Biso      1.000     Nd          2.077325  
         Nd4       1.0000    0.00155   0.03943   0.58251   Biso      1.000     Nd          2.091603  
         Nd5       1.0000    0.52361   0.51434   0.58152   Biso      1.000     Nd          2.077325  
         Nd6       1.0000    0.99845   0.53943   0.08251   Biso      1.000     Nd          2.091603  
         Nd7       1.0000    0.47639   0.01434   0.08152   Biso      1.000     Nd          2.077325  
         Nd8       1.0000    0.99845   0.96057   0.41749   Biso      1.000     Nd          2.091603  
         O1        1.0000    0.52230   0.46320   0.66550   Biso      1.000     O          -0.685756           
         O2        1.0000    0.38940   0.54760   0.66200   Biso      1.000     O          -0.637892           
         O3        1.0000    0.08100   0.09280   0.44730   Biso      1.000     O          -0.670931           
         O4        1.0000    0.07650   0.13660   0.53500   Biso      1.000     O          -0.675438           
         O5        1.0000    0.36650   0.41720   0.57240   Biso      1.000     O          -0.553177           
         O6        1.0000    0.40000   0.88450   0.94200   Biso      1.000     O          -0.658996           
         O7        1.0000    0.11280   0.54260   0.98650   Biso      1.000     O          -0.71285  
         O8        1.0000    0.16510   0.61330   0.06400   Biso      1.000     O          -0.669026           
         O9        1.0000    0.20110   0.44020   0.88740   Biso      1.000     O          -0.6335770000000001           
         O10       1.0000    0.40950   0.88680   0.02890   Biso      1.000     O          -0.6725899999999999           
         O11       1.0000    0.89620   0.01750   0.34670   Biso      1.000     O          -0.677549           
         O12       1.0000    0.39150   0.44680   0.49440   Biso      1.000     O          -0.785485           
         O13       1.0000    0.10380   0.51750   0.84670   Biso      1.000     O          -0.677549           
         O14       1.0000    0.88720   0.04260   0.48650   Biso      1.000     O          -0.71285  
         O15       1.0000    0.60000   0.38450   0.44200   Biso      1.000     O          -0.658996           
         O16       1.0000    0.83490   0.11330   0.56400   Biso      1.000     O          -0.669026           
         O17       1.0000    0.79890   0.94020   0.38740   Biso      1.000     O          -0.6335770000000001           
         O18       1.0000    0.39150   0.05320   0.00560   Biso      1.000     O          -0.785484           
         O19       1.0000    0.36650   0.08280   0.92760   Biso      1.000     O          -0.553177           
         O20       1.0000    0.07650   0.36340   0.96500   Biso      1.000     O          -0.675438           
         O21       1.0000    0.08100   0.40720   0.05270   Biso      1.000     O          -0.670932           
         O22       1.0000    0.38940   0.95240   0.83800   Biso      1.000     O          -0.637892           
         O23       1.0000    0.52230   0.03680   0.83450   Biso      1.000     O          -0.685756           
         O24       1.0000    0.20110   0.05980   0.61260   Biso      1.000     O          -0.6335770000000001           
         O25       1.0000    0.10380   0.98250   0.65330   Biso      1.000     O          -0.677549           
         O26       1.0000    0.59050   0.11320   0.97110   Biso      1.000     O          -0.6725899999999999           
         O27       1.0000    0.60000   0.11550   0.05800   Biso      1.000     O          -0.658996           
         O28       1.0000    0.59050   0.38680   0.52890   Biso      1.000     O          -0.6725899999999999           
         O29       1.0000    0.47770   0.96320   0.16550   Biso      1.000     O          -0.685756           
         O30       1.0000    0.92350   0.63660   0.03500   Biso      1.000     O          -0.675438           
         O31       1.0000    0.91900   0.59280   0.94730   Biso      1.000     O          -0.670932           
         O32       1.0000    0.60850   0.55320   0.50560   Biso      1.000     O          -0.785485           
         O33       1.0000    0.61060   0.04760   0.16200   Biso      1.000     O          -0.637892           
         O34       1.0000    0.92350   0.86340   0.46500   Biso      1.000     O          -0.675438           
         O35       1.0000    0.91900   0.90720   0.55270   Biso      1.000     O          -0.670931           
         O36       1.0000    0.61060   0.45240   0.33800   Biso      1.000     O          -0.637892           
         O37       1.0000    0.47770   0.53680   0.33450   Biso      1.000     O          -0.685756           
         O38       1.0000    0.79890   0.55980   0.11260   Biso      1.000     O          -0.6335770000000001           
         O39       1.0000    0.63350   0.58280   0.42760   Biso      1.000     O          -0.553177           
         O40       1.0000    0.40950   0.61320   0.47110   Biso      1.000     O          -0.6725899999999999           
         O41       1.0000    0.89620   0.48250   0.15330   Biso      1.000     O          -0.67755  
         O42       1.0000    0.83490   0.38670   0.93600   Biso      1.000     O          -0.669026           
         O43       1.0000    0.63350   0.91720   0.07240   Biso      1.000     O          -0.553177           
         O44       1.0000    0.88720   0.45740   0.01350   Biso      1.000     O          -0.71285  
         O45       1.0000    0.11280   0.95740   0.51350   Biso      1.000     O          -0.71285  
         O46       1.0000    0.16510   0.88670   0.43600   Biso      1.000     O          -0.669026           
         O47       1.0000    0.40000   0.61550   0.55800   Biso      1.000     O          -0.658996           
         O48       1.0000    0.60850   0.94680   0.99440   Biso      1.000     O          -0.785484           
         S1        1.0000    0.71060   0.26160   0.97207   Biso      1.000     S          0.15515299999999999           
         S2        1.0000    0.26760   0.98023   0.74149   Biso      1.000     S          0.147511  
         S3        1.0000    0.21780   0.22186   0.96236   Biso      1.000     S          0.195521  
         S4        1.0000    0.26760   0.51977   0.75851   Biso      1.000     S          0.14751199999999998           
         S5        1.0000    0.21780   0.27814   0.53764   Biso      1.000     S          0.195518  
         S6        1.0000    0.28940   0.73840   0.02793   Biso      1.000     S          0.15515299999999999           
         S7        1.0000    0.73240   0.01977   0.25851   Biso      1.000     S          0.147511  
         S8        1.0000    0.78220   0.77814   0.03764   Biso      1.000     S          0.195521  
         S9        1.0000    0.28940   0.76160   0.47207   Biso      1.000     S          0.155154  
         S10       1.0000    0.73240   0.48023   0.24149   Biso      1.000     S          0.147514  
         S11       1.0000    0.78220   0.72186   0.46236   Biso      1.000     S          0.195519  
         S12       1.0000    0.71060   0.23840   0.52793   Biso      1.000     S          0.15515199999999998 