
##########################################################################
#               Crystallographic Information Format file
#               Produced by PyCifRW module
#
#  This is a CIF file.  CIF has been adopted by the International
#  Union of Crystallography as the standard for data archiving and
#  transmission.
#
#  For information on this file format, follow the CIF links at
#  http://www.iucr.org
##########################################################################

data_image0

_cell_length_a                          11.6871
_cell_length_b                          17.3413
_cell_length_c                          25.8512
_cell_angle_alpha                       102.301
_cell_angle_beta                        90
_cell_angle_gamma                       90
_symmetry_space_group_name_H-M          'P 1'
_symmetry_int_tables_number             1
loop_
  _symmetry_equiv_pos_as_xyz
         'x, y, z' 
loop_
  _atom_site_label
  _atom_site_occupancy
  _atom_site_fract_x
  _atom_site_fract_y
  _atom_site_fract_z
  _atom_site_thermal_displace_type
  _atom_site_B_iso_or_equiv
  _atom_site_type_symbol
  _atom_site_charge
         C1        1.0000    0.27470   0.32390   0.45060   Biso      1.000     C          -0.13854  
         C2        1.0000    0.23090   0.76250   0.57140   Biso      1.000     C          -0.106769           
         C3        1.0000    0.18360   0.71800   0.52690   Biso      1.000     C          -0.11741199999999999          
         C4        1.0000    0.60930   0.63990   0.98520   Biso      1.000     C          0.683624  
         C5        1.0000    0.84050   0.90870   0.02520   Biso      1.000     C          0.65145   
         C6        1.0000    0.66250   0.71630   0.98120   Biso      1.000     C          -0.108931           
         C7        1.0000    0.66420   0.75290   0.94000   Biso      1.000     C          -0.104874           
         C8        1.0000    0.72530   0.82390   0.95060   Biso      1.000     C          -0.138542           
         C9        1.0000    0.76900   0.84115   0.00025   Biso      1.000     C          -0.11886600000000001          
         C10       1.0000    0.69600   0.98810   0.35380   Biso      1.000     C          0.587616  
         C11       1.0000    0.29100   0.82880   0.56190   Biso      1.000     C          -0.100022           
         C12       1.0000    0.94960   0.00001   0.18491   Biso      1.000     C          0.614566  
         C13       1.0000    0.88980   0.94530   0.31470   Biso      1.000     C          -0.11083299999999999          
         C14       1.0000    0.95670   0.94740   0.26970   Biso      1.000     C          -0.12113199999999999          
         C15       1.0000    0.90560   0.98850   0.23630   Biso      1.000     C          -0.09386  
         C16       1.0000    0.65510   0.38960   0.98240   Biso      1.000     C          0.668421  
         C17       1.0000    0.88260   0.14320   0.01960   Biso      1.000     C          0.6793060000000001  
         C18       1.0000    0.71090   0.33300   0.01010   Biso      1.000     C          -0.11502799999999999          
         C19       1.0000    0.70900   0.32880   0.06190   Biso      1.000     C          -0.100008           
         C20       1.0000    0.76910   0.26250   0.07140   Biso      1.000     C          -0.106771           
         C21       1.0000    0.81640   0.21800   0.02690   Biso      1.000     C          -0.11741199999999999          
         C22       1.0000    0.78980   0.98390   0.31490   Biso      1.000     C          -0.10888800000000001          
         C23       1.0000    0.60930   0.86010   0.51480   Biso      1.000     C          0.683624  
         C24       1.0000    0.28910   0.83300   0.51010   Biso      1.000     C          -0.115014           
         C25       1.0000    0.34490   0.88960   0.48240   Biso      1.000     C          0.668419  
         C26       1.0000    0.04330   0.05260   0.73030   Biso      1.000     C          -0.12113199999999999          
         C27       1.0000    0.09440   0.01150   0.76370   Biso      1.000     C          -0.09386  
         C28       1.0000    0.34490   0.61040   0.01760   Biso      1.000     C          0.668421  
         C29       1.0000    0.11740   0.85680   0.98040   Biso      1.000     C          0.6793060000000001  
         C30       1.0000    0.28910   0.66700   0.98990   Biso      1.000     C          -0.11502799999999999          
         C31       1.0000    0.29100   0.67120   0.93810   Biso      1.000     C          -0.100008           
         C32       1.0000    0.23090   0.73750   0.92860   Biso      1.000     C          -0.106771           
         C33       1.0000    0.18360   0.78200   0.97310   Biso      1.000     C          -0.11741199999999999          
         C34       1.0000    0.39070   0.13990   0.48520   Biso      1.000     C          0.6836220000000001  
         C35       1.0000    0.11740   0.64320   0.51960   Biso      1.000     C          0.6793060000000001  
         C36       1.0000    0.15950   0.40870   0.52520   Biso      1.000     C          0.65145   
         C37       1.0000    0.33580   0.25290   0.44000   Biso      1.000     C          -0.10489000000000001          
         C38       1.0000    0.05040   0.99999   0.81509   Biso      1.000     C          0.614567  
         C39       1.0000    0.23100   0.34115   0.50025   Biso      1.000     C          -0.11886600000000001          
         C40       1.0000    0.30400   0.48810   0.85380   Biso      1.000     C          0.587618  
         C41       1.0000    0.05040   0.50001   0.68491   Biso      1.000     C          0.614566  
         C42       1.0000    0.21020   0.48390   0.81490   Biso      1.000     C          -0.10891500000000001          
         C43       1.0000    0.11020   0.44530   0.81470   Biso      1.000     C          -0.11080799999999999          
         C44       1.0000    0.04330   0.44740   0.76970   Biso      1.000     C          -0.12113499999999999          
         C45       1.0000    0.09440   0.48850   0.73630   Biso      1.000     C          -0.09386  
         C46       1.0000    0.33750   0.21630   0.48120   Biso      1.000     C          -0.10891500000000001          
         C47       1.0000    0.84050   0.59130   0.47480   Biso      1.000     C          0.651452  
         C48       1.0000    0.66250   0.78370   0.51880   Biso      1.000     C          -0.108931           
         C49       1.0000    0.66420   0.74710   0.56000   Biso      1.000     C          -0.104876           
         C50       1.0000    0.39070   0.36010   0.01480   Biso      1.000     C          0.683624  
         C51       1.0000    0.15950   0.09130   0.97480   Biso      1.000     C          0.65145   
         C52       1.0000    0.33750   0.28370   0.01880   Biso      1.000     C          -0.108931           
         C53       1.0000    0.33580   0.24710   0.06000   Biso      1.000     C          -0.104874           
         C54       1.0000    0.27470   0.17610   0.04940   Biso      1.000     C          -0.138542           
         C55       1.0000    0.23100   0.15885   0.99975   Biso      1.000     C          -0.11886600000000001          
         C56       1.0000    0.30400   0.01190   0.64620   Biso      1.000     C          0.587615  
         C57       1.0000    0.11020   0.05470   0.68530   Biso      1.000     C          -0.11083299999999999          
         C58       1.0000    0.81640   0.28200   0.47310   Biso      1.000     C          -0.117425           
         C59       1.0000    0.76910   0.23750   0.42860   Biso      1.000     C          -0.10675699999999999          
         C60       1.0000    0.70900   0.17120   0.43810   Biso      1.000     C          -0.100024           
         C61       1.0000    0.21020   0.01610   0.68510   Biso      1.000     C          -0.10888800000000001          
         C62       1.0000    0.88260   0.35680   0.48040   Biso      1.000     C          0.679307  
         C63       1.0000    0.90560   0.51150   0.26370   Biso      1.000     C          -0.09386599999999999          
         C64       1.0000    0.88980   0.55470   0.18530   Biso      1.000     C          -0.11083399999999999          
         C65       1.0000    0.78980   0.51610   0.18510   Biso      1.000     C          -0.10888800000000001          
         C66       1.0000    0.94960   0.49999   0.31509   Biso      1.000     C          0.614567  
         C67       1.0000    0.95670   0.55260   0.23030   Biso      1.000     C          -0.121127           
         C68       1.0000    0.76900   0.65885   0.49975   Biso      1.000     C          -0.11888299999999999          
         C69       1.0000    0.72530   0.67610   0.54940   Biso      1.000     C          -0.138525           
         C70       1.0000    0.65510   0.11040   0.51760   Biso      1.000     C          0.668419  
         C71       1.0000    0.69600   0.51190   0.14620   Biso      1.000     C          0.587616  
         C72       1.0000    0.71090   0.16700   0.48990   Biso      1.000     C          -0.115013           
         H1        1.0000    0.77570   0.25050   0.10470   Biso      1.000     H          0.142128  
         H2        1.0000    0.77570   0.24950   0.39530   Biso      1.000     H          0.142127  
         H3        1.0000    0.67220   0.13460   0.41180   Biso      1.000     H          0.133433  
         H4        1.0000    0.02810   0.57650   0.23660   Biso      1.000     H          0.13633699999999999           
         H5        1.0000    0.91220   0.58010   0.15870   Biso      1.000     H          0.140837  
         H6        1.0000    0.73500   0.64420   0.57380   Biso      1.000     H          0.11262799999999999           
         H7        1.0000    0.62830   0.76710   0.59220   Biso      1.000     H          0.13991099999999998           
         H8        1.0000    0.02810   0.92350   0.26340   Biso      1.000     H          0.13633800000000001           
         H9        1.0000    0.91220   0.91990   0.34130   Biso      1.000     H          0.140837  
         H10       1.0000    0.73500   0.85580   0.92620   Biso      1.000     H          0.11262899999999999           
         H11       1.0000    0.62830   0.73290   0.90780   Biso      1.000     H          0.13991099999999998           
         H12       1.0000    0.22430   0.75050   0.60470   Biso      1.000     H          0.142127  
         H13       1.0000    0.32780   0.86540   0.58820   Biso      1.000     H          0.133433  
         H14       1.0000    0.97190   0.42350   0.76340   Biso      1.000     H          0.13633800000000001           
         H15       1.0000    0.26500   0.35580   0.42620   Biso      1.000     H          0.11262899999999999           
         H16       1.0000    0.37170   0.23290   0.40780   Biso      1.000     H          0.13991199999999998           
         H17       1.0000    0.22430   0.74950   0.89530   Biso      1.000     H          0.142127  
         H18       1.0000    0.32780   0.63460   0.91180   Biso      1.000     H          0.133432  
         H19       1.0000    0.97190   0.07650   0.73660   Biso      1.000     H          0.13633800000000001           
         H20       1.0000    0.08780   0.08010   0.65870   Biso      1.000     H          0.140837  
         H21       1.0000    0.26500   0.14420   0.07380   Biso      1.000     H          0.11262899999999999           
         H22       1.0000    0.37170   0.26710   0.09220   Biso      1.000     H          0.13991099999999998           
         H23       1.0000    0.67220   0.36540   0.08820   Biso      1.000     H          0.133432  
         H24       1.0000    0.08780   0.41990   0.84130   Biso      1.000     H          0.140835  
         Nd1       1.0000    0.02827   0.48678   0.41903   Biso      1.000     Nd          2.076347  
         Nd2       1.0000    0.50794   0.53928   0.08059   Biso      1.000     Nd          2.086093  
         Nd3       1.0000    0.97173   0.98678   0.91903   Biso      1.000     Nd          2.076347  
         Nd4       1.0000    0.50794   0.96072   0.41941   Biso      1.000     Nd          2.0860939999999997  
         Nd5       1.0000    0.97173   0.51322   0.58097   Biso      1.000     Nd          2.076347  
         Nd6       1.0000    0.49206   0.46072   0.91941   Biso      1.000     Nd          2.086093  
         Nd7       1.0000    0.02827   0.01322   0.08097   Biso      1.000     Nd          2.076347  
         Nd8       1.0000    0.49206   0.03928   0.58059   Biso      1.000     Nd          2.0860939999999997  
         O1        1.0000    0.09890   0.55006   0.66336   Biso      1.000     O          -0.652629           
         O2        1.0000    0.96660   0.46049   0.66449   Biso      1.000     O          -0.662858           
         O3        1.0000    0.38760   0.95333   0.50813   Biso      1.000     O          -0.725647           
         O4        1.0000    0.35130   0.87024   0.43344   Biso      1.000     O          -0.6630590000000001           
         O5        1.0000    0.09040   0.61225   0.47325   Biso      1.000     O          -0.674929           
         O6        1.0000    0.86300   0.91969   0.07319   Biso      1.000     O          -0.562006           
         O7        1.0000    0.58120   0.59413   0.94283   Biso      1.000     O          -0.66484  
         O8        1.0000    0.59810   0.62760   0.03100   Biso      1.000     O          -0.668407           
         O9        1.0000    0.39650   0.51975   0.84735   Biso      1.000     O          -0.665067           
         O10       1.0000    0.88020   0.95425   0.99655   Biso      1.000     O          -0.7783399999999999           
         O11       1.0000    0.71370   0.95637   0.39297   Biso      1.000     O          -0.625629           
         O12       1.0000    0.09510   0.61778   0.56068   Biso      1.000     O          -0.656911           
         O13       1.0000    0.28630   0.45637   0.89297   Biso      1.000     O          -0.625629           
         O14       1.0000    0.41880   0.09413   0.44283   Biso      1.000     O          -0.66484  
         O15       1.0000    0.13700   0.41969   0.57319   Biso      1.000     O          -0.562006           
         O16       1.0000    0.40190   0.12760   0.53100   Biso      1.000     O          -0.668408           
         O17       1.0000    0.60350   0.01975   0.34735   Biso      1.000     O          -0.665067           
         O18       1.0000    0.09510   0.88222   0.93932   Biso      1.000     O          -0.656911           
         O19       1.0000    0.09040   0.88775   0.02675   Biso      1.000     O          -0.674929           
         O20       1.0000    0.35130   0.62976   0.06656   Biso      1.000     O          -0.6630590000000001           
         O21       1.0000    0.38760   0.54667   0.99187   Biso      1.000     O          -0.725647           
         O22       1.0000    0.96660   0.03951   0.83551   Biso      1.000     O          -0.662859           
         O23       1.0000    0.09890   0.94994   0.83664   Biso      1.000     O          -0.652629           
         O24       1.0000    0.39650   0.98025   0.65265   Biso      1.000     O          -0.665067           
         O25       1.0000    0.28630   0.04363   0.60703   Biso      1.000     O          -0.625629           
         O26       1.0000    0.11980   0.04575   0.00345   Biso      1.000     O          -0.7783399999999999           
         O27       1.0000    0.13700   0.08031   0.92681   Biso      1.000     O          -0.562006           
         O28       1.0000    0.11980   0.45425   0.49655   Biso      1.000     O          -0.7783399999999999           
         O29       1.0000    0.90110   0.05006   0.16336   Biso      1.000     O          -0.652629           
         O30       1.0000    0.64870   0.37024   0.93344   Biso      1.000     O          -0.6630590000000001           
         O31       1.0000    0.61240   0.45333   0.00813   Biso      1.000     O          -0.725647           
         O32       1.0000    0.90490   0.38222   0.43932   Biso      1.000     O          -0.656911           
         O33       1.0000    0.03340   0.96049   0.16449   Biso      1.000     O          -0.662859           
         O34       1.0000    0.64870   0.12976   0.56656   Biso      1.000     O          -0.6630590000000001           
         O35       1.0000    0.61240   0.04667   0.49187   Biso      1.000     O          -0.725647           
         O36       1.0000    0.03340   0.53951   0.33551   Biso      1.000     O          -0.662859           
         O37       1.0000    0.90110   0.44994   0.33664   Biso      1.000     O          -0.652629           
         O38       1.0000    0.60350   0.48025   0.15265   Biso      1.000     O          -0.665068           
         O39       1.0000    0.90960   0.38775   0.52675   Biso      1.000     O          -0.674929           
         O40       1.0000    0.88020   0.54575   0.50345   Biso      1.000     O          -0.778341           
         O41       1.0000    0.71370   0.54363   0.10703   Biso      1.000     O          -0.625629           
         O42       1.0000    0.40190   0.37240   0.96900   Biso      1.000     O          -0.668407           
         O43       1.0000    0.90960   0.11225   0.97325   Biso      1.000     O          -0.674929           
         O44       1.0000    0.41880   0.40587   0.05717   Biso      1.000     O          -0.66484  
         O45       1.0000    0.58120   0.90587   0.55717   Biso      1.000     O          -0.66484  
         O46       1.0000    0.59810   0.87240   0.46900   Biso      1.000     O          -0.668407           
         O47       1.0000    0.86300   0.58031   0.42681   Biso      1.000     O          -0.562006           
         O48       1.0000    0.90490   0.11778   0.06068   Biso      1.000     O          -0.656911           
         S1        1.0000    0.22462   0.97443   0.73949   Biso      1.000     S          0.149454  
         S2        1.0000    0.26632   0.22917   0.96525   Biso      1.000     S          0.18737   
         S3        1.0000    0.21398   0.74407   0.02769   Biso      1.000     S          0.155949  
         S4        1.0000    0.26632   0.27083   0.53475   Biso      1.000     S          0.187368  
         S5        1.0000    0.21398   0.75593   0.47231   Biso      1.000     S          0.155948  
         S6        1.0000    0.77538   0.02557   0.26051   Biso      1.000     S          0.149454  
         S7        1.0000    0.73368   0.77083   0.03475   Biso      1.000     S          0.18737   
         S8        1.0000    0.78602   0.25593   0.97231   Biso      1.000     S          0.155949  
         S9        1.0000    0.77538   0.47443   0.23949   Biso      1.000     S          0.149455  
         S10       1.0000    0.73368   0.72917   0.46525   Biso      1.000     S          0.187372  
         S11       1.0000    0.78602   0.24407   0.52769   Biso      1.000     S          0.155949  
         S12       1.0000    0.22462   0.52557   0.76051   Biso      1.000     S          0.149457 