
##########################################################################
#               Crystallographic Information Format file
#               Produced by PyCifRW module
#
#  This is a CIF file.  CIF has been adopted by the International
#  Union of Crystallography as the standard for data archiving and
#  transmission.
#
#  For information on this file format, follow the CIF links at
#  http://www.iucr.org
##########################################################################

data_image0

_cell_length_a                          10.0631
_cell_length_b                          14.5166
_cell_length_c                          14.5166
_cell_angle_alpha                       65.1711
_cell_angle_beta                        76.6399
_cell_angle_gamma                       103.36
_symmetry_space_group_name_H-M          'P 1'
_symmetry_int_tables_number             1
loop_
  _symmetry_equiv_pos_as_xyz
         'x, y, z' 
loop_
  _atom_site_label
  _atom_site_occupancy
  _atom_site_fract_x
  _atom_site_fract_y
  _atom_site_fract_z
  _atom_site_thermal_displace_type
  _atom_site_B_iso_or_equiv
  _atom_site_type_symbol
  _atom_site_charge
         C1        1.0000    0.49860   0.66510   0.02400   Biso      1.000     C          -0.223667           
         C2        1.0000    0.13680   0.92000   0.46210   Biso      1.000     C          0.471498  
         C3        1.0000    0.83350   0.31090   0.66510   Biso      1.000     C          -0.224314           
         C4        1.0000    0.45130   0.44630   0.67170   Biso      1.000     C          -0.333732           
         C5        1.0000    0.67120   0.54740   0.71070   Biso      1.000     C          0.207073  
         C6        1.0000    0.42490   0.48370   0.74210   Biso      1.000     C          0.077598  
         C7        1.0000    0.59890   0.46210   0.61790   Biso      1.000     C          0.472101  
         C8        1.0000    0.00500   0.88200   0.44630   Biso      1.000     C          -0.335719           
         C9        1.0000    0.87700   0.32830   0.11800   Biso      1.000     C          -0.330036           
         C10       1.0000    0.61810   0.28930   0.25810   Biso      1.000     C          0.207432  
         C11       1.0000    0.83300   0.25790   0.22580   Biso      1.000     C          0.077781  
         C12       1.0000    0.78320   0.38210   0.08000   Biso      1.000     C          0.469412  
         C13       1.0000    0.47740   0.97600   0.68910   Biso      1.000     C          -0.222116           
         C14       1.0000    0.99500   0.11800   0.55370   Biso      1.000     C          -0.333931           
         C15       1.0000    0.87620   0.25810   0.45260   Biso      1.000     C          0.205194  
         C16       1.0000    0.05880   0.22580   0.51630   Biso      1.000     C          0.076274  
         C17       1.0000    0.86320   0.08000   0.53790   Biso      1.000     C          0.473193  
         C18       1.0000    0.16650   0.68910   0.33490   Biso      1.000     C          -0.224114           
         C19       1.0000    0.54870   0.55370   0.32830   Biso      1.000     C          -0.334159           
         C20       1.0000    0.32880   0.45260   0.28930   Biso      1.000     C          0.208374  
         C21       1.0000    0.57510   0.51630   0.25790   Biso      1.000     C          0.073404  
         C22       1.0000    0.40110   0.53790   0.38210   Biso      1.000     C          0.471139  
         C23       1.0000    0.50140   0.33490   0.97600   Biso      1.000     C          -0.223634           
         C24       1.0000    0.52260   0.02400   0.31090   Biso      1.000     C          -0.221944           
         C25       1.0000    0.21680   0.61790   0.92000   Biso      1.000     C          0.468823  
         C26       1.0000    0.16700   0.74210   0.77420   Biso      1.000     C          0.078843  
         C27       1.0000    0.38190   0.71070   0.74190   Biso      1.000     C          0.209256  
         C28       1.0000    0.12300   0.67170   0.88200   Biso      1.000     C          -0.328015           
         C29       1.0000    0.94120   0.77420   0.48370   Biso      1.000     C          0.068724  
         C30       1.0000    0.12380   0.74190   0.54740   Biso      1.000     C          0.206483  
         Cu1       1.0000    0.38255   0.88760   0.54935   Biso      1.000     Cu          0.3819    
         Cu2       1.0000    0.50505   0.43695   0.11240   Biso      1.000     Cu          0.379383  
         Cu3       1.0000    0.06810   0.45065   0.43695   Biso      1.000     Cu          0.380218  
         Cu4       1.0000    0.61745   0.11240   0.45065   Biso      1.000     Cu          0.381403  
         Cu5       1.0000    0.49495   0.56305   0.88760   Biso      1.000     Cu          0.378237  
         Cu6       1.0000    0.93190   0.54935   0.56305   Biso      1.000     Cu          0.380331  
         H1        1.0000    0.50960   0.27510   0.03860   Biso      1.000     H          0.104565  
         H2        1.0000    0.39240   0.31040   0.98060   Biso      1.000     H          0.071081  
         H3        1.0000    0.26860   0.56030   0.48700   Biso      1.000     H          0.327238  
         H4        1.0000    0.44420   0.61010   0.46540   Biso      1.000     H          0.322757  
         H5        1.0000    0.67330   0.52720   0.22110   Biso      1.000     H          0.088017  
         H6        1.0000    0.62690   0.59040   0.34160   Biso      1.000     H          0.140453  
         H7        1.0000    0.25120   0.41670   0.27500   Biso      1.000     H          0.054733  
         H8        1.0000    0.20950   0.74230   0.34910   Biso      1.000     H          0.109369  
         H9        1.0000    0.55860   0.34910   0.90860   Biso      1.000     H          0.10853   
         H10       1.0000    0.08200   0.70900   0.31040   Biso      1.000     H          0.071109  
         H11       1.0000    0.74880   0.58330   0.72500   Biso      1.000     H          0.054419  
         H12       1.0000    0.79050   0.25770   0.65090   Biso      1.000     H          0.108872  
         H13       1.0000    0.76550   0.31370   0.72490   Biso      1.000     H          0.104398  
         H14       1.0000    0.91800   0.29100   0.68960   Biso      1.000     H          0.071142  
         H15       1.0000    0.29170   0.04730   0.43970   Biso      1.000     H          0.32563   
         H16       1.0000    0.16590   0.07550   0.38990   Biso      1.000     H          0.322345  
         H17       1.0000    0.85390   0.74830   0.47280   Biso      1.000     H          0.08796   
         H18       1.0000    0.96350   0.93200   0.40960   Biso      1.000     H          0.140357  
         H19       1.0000    0.16550   0.69170   0.58330   Biso      1.000     H          0.054042  
         H20       1.0000    0.23450   0.68630   0.27510   Biso      1.000     H          0.104143  
         H21       1.0000    0.45180   0.96140   0.31370   Biso      1.000     H          0.104421  
         H22       1.0000    0.62700   0.01940   0.29100   Biso      1.000     H          0.071071  
         H23       1.0000    0.24440   0.51300   0.04730   Biso      1.000     H          0.32542   
         H24       1.0000    0.09040   0.53460   0.07550   Biso      1.000     H          0.323181  
         H25       1.0000    0.10560   0.77890   0.74830   Biso      1.000     H          0.088267  
         H26       1.0000    0.03150   0.65840   0.93200   Biso      1.000     H          0.139172  
         H27       1.0000    0.47380   0.72500   0.69170   Biso      1.000     H          0.054874  
         H28       1.0000    0.37310   0.40960   0.65840   Biso      1.000     H          0.140123  
         H29       1.0000    0.32670   0.47280   0.77890   Biso      1.000     H          0.088812  
         H30       1.0000    0.53280   0.09140   0.25770   Biso      1.000     H          0.107377  
         H31       1.0000    0.73140   0.43970   0.51300   Biso      1.000     H          0.327523  
         H32       1.0000    0.55580   0.38990   0.53460   Biso      1.000     H          0.322656  
         H33       1.0000    0.70830   0.95270   0.56030   Biso      1.000     H          0.326319  
         H34       1.0000    0.83410   0.92450   0.61010   Biso      1.000     H          0.322878  
         H35       1.0000    0.14610   0.25170   0.52720   Biso      1.000     H          0.089594  
         H36       1.0000    0.03650   0.06800   0.59040   Biso      1.000     H          0.140479  
         H37       1.0000    0.46720   0.90860   0.74230   Biso      1.000     H          0.107187  
         H38       1.0000    0.54820   0.03860   0.68630   Biso      1.000     H          0.104341  
         H39       1.0000    0.37300   0.98060   0.70900   Biso      1.000     H          0.071116  
         H40       1.0000    0.83450   0.30830   0.41670   Biso      1.000     H          0.054183  
         H41       1.0000    0.90960   0.46540   0.92450   Biso      1.000     H          0.322684  
         H42       1.0000    0.89440   0.22110   0.25170   Biso      1.000     H          0.08777   
         H43       1.0000    0.96850   0.34160   0.06800   Biso      1.000     H          0.138768  
         H44       1.0000    0.52620   0.27500   0.30830   Biso      1.000     H          0.053966  
         H45       1.0000    0.44140   0.65090   0.09140   Biso      1.000     H          0.108748  
         H46       1.0000    0.49040   0.72490   0.96140   Biso      1.000     H          0.104173  
         H47       1.0000    0.75560   0.48700   0.95270   Biso      1.000     H          0.325196  
         H48       1.0000    0.60760   0.68960   0.01940   Biso      1.000     H          0.070919  
         N1        1.0000    0.36800   0.57250   0.45120   Biso      1.000     N          -0.629116           
         N2        1.0000    0.81920   0.45120   0.97630   Biso      1.000     N          -0.626065           
         N3        1.0000    0.99970   0.29940   0.46450   Biso      1.000     N          -0.281933           
         N4        1.0000    0.80580   0.15410   0.48480   Biso      1.000     N          -0.385577           
         N5        1.0000    0.29060   0.48480   0.36110   Biso      1.000     N          -0.385474           
         N6        1.0000    0.46420   0.46450   0.23610   Biso      1.000     N          -0.283793           
         N7        1.0000    0.65170   0.36110   0.15410   Biso      1.000     N          -0.384544           
         N8        1.0000    0.79550   0.97630   0.57250   Biso      1.000     N          -0.625197           
         N9        1.0000    0.70030   0.23610   0.29940   Biso      1.000     N          -0.282911           
         N10       1.0000    0.18080   0.54880   0.02370   Biso      1.000     N          -0.625414           
         N11       1.0000    0.70940   0.51520   0.63890   Biso      1.000     N          -0.383949           
         N12       1.0000    0.53580   0.53550   0.76390   Biso      1.000     N          -0.284008           
         N13       1.0000    0.20450   0.02370   0.42750   Biso      1.000     N          -0.627032           
         N14       1.0000    0.19420   0.84590   0.51520   Biso      1.000     N          -0.387801           
         N15       1.0000    0.00030   0.70060   0.53550   Biso      1.000     N          -0.282323           
         N16       1.0000    0.34830   0.63890   0.84590   Biso      1.000     N          -0.383665           
         N17       1.0000    0.29970   0.76390   0.70060   Biso      1.000     N          -0.282606           
         N18       1.0000    0.63200   0.42750   0.54880   Biso      1.000     N          -0.628646           
         O1        1.0000    0.09940   0.58700   0.43470   Biso      1.000     O          -0.498035           
         O2        1.0000    0.48760   0.02170   0.41300   Biso      1.000     O          -0.498069           
         O3        1.0000    0.90060   0.41300   0.56530   Biso      1.000     O          -0.498433           
         O4        1.0000    0.46590   0.56530   0.02170   Biso      1.000     O          -0.499095           
         O5        1.0000    0.51240   0.97830   0.58700   Biso      1.000     O          -0.498545           
         O6        1.0000    0.53410   0.43470   0.97830   Biso      1.000     O          -0.498839 