
##########################################################################
#               Crystallographic Information Format file
#               Produced by PyCifRW module
#
#  This is a CIF file.  CIF has been adopted by the International
#  Union of Crystallography as the standard for data archiving and
#  transmission.
#
#  For information on this file format, follow the CIF links at
#  http://www.iucr.org
##########################################################################

data_image0

_cell_length_a                          16.07
_cell_length_b                          9.471
_cell_length_c                          23.54
_cell_angle_alpha                       90
_cell_angle_beta                        107.685
_cell_angle_gamma                       90
_symmetry_space_group_name_H-M          'P 1'
_symmetry_int_tables_number             1
loop_
  _symmetry_equiv_pos_as_xyz
         'x, y, z' 
loop_
  _atom_site_label
  _atom_site_occupancy
  _atom_site_fract_x
  _atom_site_fract_y
  _atom_site_fract_z
  _atom_site_thermal_displace_type
  _atom_site_B_iso_or_equiv
  _atom_site_type_symbol
  _atom_site_charge
         C1        1.0000    0.11560   0.31000   0.04150   Biso      1.000     C          0.611412  
         C2        1.0000    0.73200   0.35330   0.21800   Biso      1.000     C          -0.130619           
         C3        1.0000    0.70400   0.38230   0.26700   Biso      1.000     C          0.122388  
         C4        1.0000    0.63730   0.29410   0.28360   Biso      1.000     C          0.583645  
         C5        1.0000    0.53140   0.29120   0.83900   Biso      1.000     C          0.56887   
         C6        1.0000    0.49160   0.39300   0.87330   Biso      1.000     C          0.117816  
         C7        1.0000    0.40680   0.38420   0.87510   Biso      1.000     C          -0.137733           
         C8        1.0000    0.37820   0.48100   0.90850   Biso      1.000     C          -0.013982           
         C9        1.0000    0.43540   0.58580   0.93970   Biso      1.000     C          -0.149229           
         C10       1.0000    0.83410   0.31510   0.84150   Biso      1.000     C          0.522789  
         C11       1.0000    0.52030   0.58700   0.93600   Biso      1.000     C          0.095921  
         C12       1.0000    0.75630   0.29830   0.02850   Biso      1.000     C          0.513241  
         C13       1.0000    0.83540   0.39190   0.04160   Biso      1.000     C          0.106534  
         C14       1.0000    0.90730   0.38040   0.09230   Biso      1.000     C          -0.153769           
         C15       1.0000    0.97460   0.47640   0.10020   Biso      1.000     C          -0.012036           
         C16       1.0000    0.96880   0.58030   0.05740   Biso      1.000     C          -0.142967           
         C17       1.0000    0.89620   0.58430   0.00790   Biso      1.000     C          0.100681  
         C18       1.0000    0.88440   0.69000   0.95850   Biso      1.000     C          0.611424  
         C19       1.0000    0.36270   0.70590   0.71640   Biso      1.000     C          0.583631  
         C20       1.0000    0.58860   0.69020   0.96840   Biso      1.000     C          0.60961   
         C21       1.0000    0.79550   0.43960   0.20780   Biso      1.000     C          -0.037466           
         C22       1.0000    0.79850   0.42730   0.79430   Biso      1.000     C          0.11529   
         C23       1.0000    0.82890   0.55180   0.24610   Biso      1.000     C          -0.151479           
         C24       1.0000    0.96880   0.41970   0.55740   Biso      1.000     C          -0.142995           
         C25       1.0000    0.97460   0.52360   0.60020   Biso      1.000     C          -0.012063           
         C26       1.0000    0.63730   0.70590   0.78360   Biso      1.000     C          0.583657  
         C27       1.0000    0.90730   0.61960   0.59230   Biso      1.000     C          -0.153763           
         C28       1.0000    0.83540   0.60810   0.54160   Biso      1.000     C          0.106534  
         C29       1.0000    0.75630   0.70170   0.52850   Biso      1.000     C          0.513255  
         C30       1.0000    0.58860   0.30980   0.46840   Biso      1.000     C          0.609612  
         C31       1.0000    0.52030   0.41300   0.43600   Biso      1.000     C          0.095928  
         C32       1.0000    0.70400   0.61770   0.76700   Biso      1.000     C          0.122387  
         C33       1.0000    0.43540   0.41420   0.43970   Biso      1.000     C          -0.149249           
         C34       1.0000    0.73200   0.64670   0.71800   Biso      1.000     C          -0.130621           
         C35       1.0000    0.37820   0.51900   0.40850   Biso      1.000     C          -0.013988           
         C36       1.0000    0.79550   0.56040   0.70780   Biso      1.000     C          -0.037467           
         C37       1.0000    0.40680   0.61580   0.37510   Biso      1.000     C          -0.137714           
         C38       1.0000    0.49160   0.60700   0.37330   Biso      1.000     C          0.117826  
         C39       1.0000    0.53140   0.70880   0.33900   Biso      1.000     C          0.568851  
         C40       1.0000    0.83410   0.68490   0.34150   Biso      1.000     C          0.52279   
         C41       1.0000    0.79850   0.57270   0.29430   Biso      1.000     C          0.115287  
         C42       1.0000    0.82890   0.44820   0.74610   Biso      1.000     C          -0.151481           
         C43       1.0000    0.89620   0.41570   0.50790   Biso      1.000     C          0.100678  
         C44       1.0000    0.10380   0.41570   0.99210   Biso      1.000     C          0.100685  
         C45       1.0000    0.88440   0.31000   0.45850   Biso      1.000     C          0.61142   
         C46       1.0000    0.03120   0.41970   0.94260   Biso      1.000     C          -0.143    
         C47       1.0000    0.50840   0.39300   0.62670   Biso      1.000     C          0.117816  
         C48       1.0000    0.29600   0.61770   0.73300   Biso      1.000     C          0.122379  
         C49       1.0000    0.59320   0.38420   0.62490   Biso      1.000     C          -0.137717           
         C50       1.0000    0.26800   0.35330   0.28200   Biso      1.000     C          -0.13064  
         C51       1.0000    0.29600   0.38230   0.23300   Biso      1.000     C          0.122387  
         C52       1.0000    0.36270   0.29410   0.21640   Biso      1.000     C          0.583651  
         C53       1.0000    0.62180   0.48100   0.59150   Biso      1.000     C          -0.013978           
         C54       1.0000    0.56460   0.58580   0.56030   Biso      1.000     C          -0.149231           
         C55       1.0000    0.47970   0.58700   0.56400   Biso      1.000     C          0.095922  
         C56       1.0000    0.41140   0.69020   0.53160   Biso      1.000     C          0.609607  
         C57       1.0000    0.24370   0.29830   0.47150   Biso      1.000     C          0.513222  
         C58       1.0000    0.16460   0.39190   0.45840   Biso      1.000     C          0.106533  
         C59       1.0000    0.09270   0.38040   0.40770   Biso      1.000     C          -0.153757           
         C60       1.0000    0.02540   0.47640   0.39980   Biso      1.000     C          -0.012029           
         C61       1.0000    0.03120   0.58030   0.44260   Biso      1.000     C          -0.142968           
         C62       1.0000    0.10380   0.58430   0.49210   Biso      1.000     C          0.100683  
         C63       1.0000    0.11560   0.69000   0.54150   Biso      1.000     C          0.61142   
         C64       1.0000    0.17110   0.55180   0.25390   Biso      1.000     C          -0.151494           
         C65       1.0000    0.46860   0.29120   0.66100   Biso      1.000     C          0.568861  
         C66       1.0000    0.20450   0.43960   0.29220   Biso      1.000     C          -0.037498           
         C67       1.0000    0.16590   0.68490   0.15850   Biso      1.000     C          0.522793  
         C68       1.0000    0.26800   0.64670   0.78200   Biso      1.000     C          -0.130604           
         C69       1.0000    0.02540   0.52360   0.89980   Biso      1.000     C          -0.012079           
         C70       1.0000    0.20450   0.56040   0.79220   Biso      1.000     C          -0.037445           
         C71       1.0000    0.09270   0.61960   0.90770   Biso      1.000     C          -0.153773           
         C72       1.0000    0.20150   0.57270   0.20570   Biso      1.000     C          0.115282  
         C73       1.0000    0.24370   0.70170   0.97150   Biso      1.000     C          0.513254  
         C74       1.0000    0.41140   0.30980   0.03160   Biso      1.000     C          0.609622  
         C75       1.0000    0.47970   0.41300   0.06400   Biso      1.000     C          0.095914  
         C76       1.0000    0.16460   0.60810   0.95840   Biso      1.000     C          0.106538  
         C77       1.0000    0.56460   0.41420   0.06030   Biso      1.000     C          -0.149256           
         C78       1.0000    0.20150   0.42730   0.70570   Biso      1.000     C          0.115281  
         C79       1.0000    0.62180   0.51900   0.09150   Biso      1.000     C          -0.014002           
         C80       1.0000    0.16590   0.31510   0.65850   Biso      1.000     C          0.522787  
         C81       1.0000    0.59320   0.61580   0.12490   Biso      1.000     C          -0.137734           
         C82       1.0000    0.50840   0.60700   0.12670   Biso      1.000     C          0.117828  
         C83       1.0000    0.46860   0.70880   0.16100   Biso      1.000     C          0.568844  
         C84       1.0000    0.17110   0.44820   0.75390   Biso      1.000     C          -0.151475           
         Ca1       1.0000    0.50000   0.00000   0.00000   Biso      1.000     Ca          1.630957  
         Ca2       1.0000    0.50000   0.00000   0.50000   Biso      1.000     Ca          1.630984  
         Ca3       1.0000    0.50000   0.00350   0.25000   Biso      1.000     Ca          1.51185   
         Ca4       1.0000    0.00000   0.00000   0.00000   Biso      1.000     Ca          1.645267  
         Ca5       1.0000    0.50000   0.99650   0.75000   Biso      1.000     Ca          1.51188   
         Ca6       1.0000    0.00000   0.00000   0.50000   Biso      1.000     Ca          1.645304  
         Eu1       1.0000    0.29625   0.49446   0.59732   Biso      1.000     Eu          1.148442  
         Eu2       1.0000    0.70375   0.49446   0.90268   Biso      1.000     Eu          1.148474  
         Eu3       1.0000    0.29625   0.50554   0.09731   Biso      1.000     Eu          1.148467  
         Eu4       1.0000    0.70375   0.50554   0.40268   Biso      1.000     Eu          1.148458  
         H1        1.0000    0.08980   0.30800   0.37930   Biso      1.000     H          0.129375  
         H2        1.0000    0.41680   0.65420   0.96280   Biso      1.000     H          0.110693  
         H3        1.0000    0.58320   0.65420   0.53720   Biso      1.000     H          0.110685  
         H4        1.0000    0.91020   0.30800   0.12070   Biso      1.000     H          0.129367  
         H5        1.0000    0.02430   0.47150   0.13460   Biso      1.000     H          0.113663  
         H6        1.0000    0.68000   0.47670   0.58960   Biso      1.000     H          0.113184  
         H7        1.0000    0.01420   0.64760   0.06220   Biso      1.000     H          0.109786  
         H8        1.0000    0.63110   0.31240   0.64640   Biso      1.000     H          0.128156  
         H9        1.0000    0.29160   0.27650   0.30780   Biso      1.000     H          0.13103   
         H10       1.0000    0.18380   0.42230   0.32530   Biso      1.000     H          0.102923  
         H11       1.0000    0.12830   0.61280   0.26080   Biso      1.000     H          0.132306  
         H12       1.0000    0.01420   0.35240   0.56220   Biso      1.000     H          0.10976   
         H13       1.0000    0.63110   0.68760   0.14640   Biso      1.000     H          0.128138  
         H14       1.0000    0.68000   0.52330   0.08960   Biso      1.000     H          0.113169  
         H15       1.0000    0.12830   0.38720   0.76080   Biso      1.000     H          0.132351  
         H16       1.0000    0.58320   0.34580   0.03720   Biso      1.000     H          0.110666  
         H17       1.0000    0.18380   0.57770   0.82530   Biso      1.000     H          0.102964  
         H18       1.0000    0.08980   0.69200   0.87930   Biso      1.000     H          0.129334  
         H19       1.0000    0.29160   0.72350   0.80780   Biso      1.000     H          0.131057  
         H20       1.0000    0.97570   0.52850   0.86540   Biso      1.000     H          0.113638  
         H21       1.0000    0.98580   0.35240   0.93780   Biso      1.000     H          0.109761  
         H22       1.0000    0.36890   0.31240   0.85360   Biso      1.000     H          0.128153  
         H23       1.0000    0.70840   0.27650   0.19220   Biso      1.000     H          0.131055  
         H24       1.0000    0.32000   0.47670   0.91040   Biso      1.000     H          0.113185  
         H25       1.0000    0.97570   0.47150   0.36540   Biso      1.000     H          0.113668  
         H26       1.0000    0.32000   0.52330   0.41040   Biso      1.000     H          0.113174  
         H27       1.0000    0.81620   0.42230   0.17470   Biso      1.000     H          0.102951  
         H28       1.0000    0.70840   0.72350   0.69220   Biso      1.000     H          0.13104   
         H29       1.0000    0.36890   0.68760   0.35360   Biso      1.000     H          0.128161  
         H30       1.0000    0.41680   0.34580   0.46280   Biso      1.000     H          0.110662  
         H31       1.0000    0.81620   0.57770   0.67470   Biso      1.000     H          0.102943  
         H32       1.0000    0.91020   0.69200   0.62070   Biso      1.000     H          0.129353  
         H33       1.0000    0.02430   0.52850   0.63460   Biso      1.000     H          0.113649  
         H34       1.0000    0.87170   0.61280   0.23920   Biso      1.000     H          0.132332  
         H35       1.0000    0.87170   0.38720   0.73920   Biso      1.000     H          0.132337  
         H36       1.0000    0.98580   0.64760   0.43780   Biso      1.000     H          0.109782  
         N1        1.0000    0.73760   0.51150   0.80512   Biso      1.000     N          -0.267854           
         N2        1.0000    0.54740   0.49120   0.90367   Biso      1.000     N          -0.269878           
         N3        1.0000    0.83070   0.49150   0.99959   Biso      1.000     N          -0.268587           
         N4        1.0000    0.26240   0.51150   0.69488   Biso      1.000     N          -0.267865           
         N5        1.0000    0.45260   0.49120   0.59633   Biso      1.000     N          -0.269889           
         N6        1.0000    0.83070   0.50850   0.49959   Biso      1.000     N          -0.268576           
         N7        1.0000    0.16930   0.50850   0.00041   Biso      1.000     N          -0.268618           
         N8        1.0000    0.26240   0.48850   0.19488   Biso      1.000     N          -0.267832           
         N9        1.0000    0.54740   0.50880   0.40367   Biso      1.000     N          -0.269872           
         N10       1.0000    0.73760   0.48850   0.30512   Biso      1.000     N          -0.267863           
         N11       1.0000    0.16930   0.49150   0.50041   Biso      1.000     N          -0.26859  
         N12       1.0000    0.45260   0.50880   0.09633   Biso      1.000     N          -0.269882           
         O1        1.0000    0.37360   0.32330   0.16621   Biso      1.000     O          -0.516586           
         O2        1.0000    0.40130   0.20000   0.25127   Biso      1.000     O          -0.644452           
         O3        1.0000    0.19290   0.67890   0.11297   Biso      1.000     O          -0.507449           
         O4        1.0000    0.11300   0.77220   0.16683   Biso      1.000     O          -0.492758           
         O5        1.0000    0.38860   0.68720   0.15705   Biso      1.000     O          -0.521266           
         O6        1.0000    0.29990   0.68710   0.02212   Biso      1.000     O          -0.508444           
         O7        1.0000    0.33440   0.33130   0.03339   Biso      1.000     O          -0.52071  
         O8        1.0000    0.24950   0.78580   0.93170   Biso      1.000     O          -0.530514           
         O9        1.0000    0.43350   0.20950   0.00428   Biso      1.000     O          -0.763238           
         O10       1.0000    0.18230   0.32730   0.08688   Biso      1.000     O          -0.526106           
         O11       1.0000    0.06040   0.21420   0.03527   Biso      1.000     O          -0.756615           
         O12       1.0000    0.51550   0.80580   0.18919   Biso      1.000     O          -0.658405           
         O13       1.0000    0.62640   0.67670   0.83379   Biso      1.000     O          -0.516614           
         O14       1.0000    0.19290   0.32110   0.61297   Biso      1.000     O          -0.507428           
         O15       1.0000    0.18230   0.67270   0.58688   Biso      1.000     O          -0.526106           
         O16       1.0000    0.80710   0.32110   0.88703   Biso      1.000     O          -0.507442           
         O17       1.0000    0.88700   0.22780   0.83317   Biso      1.000     O          -0.492675           
         O18       1.0000    0.61140   0.31280   0.84295   Biso      1.000     O          -0.521308           
         O19       1.0000    0.48450   0.19420   0.81081   Biso      1.000     O          -0.65839  
         O20       1.0000    0.66560   0.66870   0.96661   Biso      1.000     O          -0.520676           
         O21       1.0000    0.56650   0.79050   0.99572   Biso      1.000     O          -0.763205           
         O22       1.0000    0.70010   0.31290   0.97788   Biso      1.000     O          -0.508374           
         O23       1.0000    0.75050   0.21420   0.06830   Biso      1.000     O          -0.530383           
         O24       1.0000    0.81770   0.67270   0.91312   Biso      1.000     O          -0.526111           
         O25       1.0000    0.93960   0.78580   0.96473   Biso      1.000     O          -0.756578           
         O26       1.0000    0.93960   0.21420   0.46473   Biso      1.000     O          -0.756613           
         O27       1.0000    0.81770   0.32730   0.41312   Biso      1.000     O          -0.526102           
         O28       1.0000    0.75050   0.78580   0.56830   Biso      1.000     O          -0.530456           
         O29       1.0000    0.70010   0.68710   0.47788   Biso      1.000     O          -0.508397           
         O30       1.0000    0.56650   0.20950   0.49572   Biso      1.000     O          -0.763237           
         O31       1.0000    0.66560   0.33130   0.46661   Biso      1.000     O          -0.520689           
         O32       1.0000    0.48450   0.80580   0.31081   Biso      1.000     O          -0.65834  
         O33       1.0000    0.24950   0.21420   0.43170   Biso      1.000     O          -0.530314           
         O34       1.0000    0.29990   0.31290   0.52212   Biso      1.000     O          -0.508327           
         O35       1.0000    0.43350   0.79050   0.50428   Biso      1.000     O          -0.763206           
         O36       1.0000    0.33440   0.66870   0.53339   Biso      1.000     O          -0.52067  
         O37       1.0000    0.51550   0.19420   0.68919   Biso      1.000     O          -0.658349           
         O38       1.0000    0.38860   0.31280   0.65705   Biso      1.000     O          -0.521305           
         O39       1.0000    0.06040   0.78580   0.53527   Biso      1.000     O          -0.756581           
         O40       1.0000    0.11300   0.22780   0.66683   Biso      1.000     O          -0.492615           
         O41       1.0000    0.37360   0.67670   0.66621   Biso      1.000     O          -0.516524           
         O42       1.0000    0.62640   0.32330   0.33379   Biso      1.000     O          -0.516569           
         O43       1.0000    0.59870   0.20000   0.24873   Biso      1.000     O          -0.644371           
         O44       1.0000    0.80710   0.67890   0.38703   Biso      1.000     O          -0.507469           
         O45       1.0000    0.88700   0.77220   0.33317   Biso      1.000     O          -0.492699           
         O46       1.0000    0.61140   0.68720   0.34295   Biso      1.000     O          -0.521264           
         O47       1.0000    0.40130   0.80000   0.75127   Biso      1.000     O          -0.64435  
         O48       1.0000    0.59870   0.80000   0.74873   Biso      1.000     O          -0.644433 