
##########################################################################
#               Crystallographic Information Format file
#               Produced by PyCifRW module
#
#  This is a CIF file.  CIF has been adopted by the International
#  Union of Crystallography as the standard for data archiving and
#  transmission.
#
#  For information on this file format, follow the CIF links at
#  http://www.iucr.org
##########################################################################

data_image0

_cell_length_a                          8.7543
_cell_length_b                          11.1454
_cell_length_c                          17.7411
_cell_angle_alpha                       95.1832
_cell_angle_beta                        104.284
_cell_angle_gamma                       68.521
_symmetry_space_group_name_H-M          'P 1'
_symmetry_int_tables_number             1
loop_
  _symmetry_equiv_pos_as_xyz
         'x, y, z' 
loop_
  _atom_site_label
  _atom_site_occupancy
  _atom_site_fract_x
  _atom_site_fract_y
  _atom_site_fract_z
  _atom_site_thermal_displace_type
  _atom_site_B_iso_or_equiv
  _atom_site_type_symbol
  _atom_site_charge
         C1        1.0000    0.95864   0.92919   0.43592   Biso      1.000     C          -0.038528           
         C2        1.0000    0.97678   0.52185   0.25036   Biso      1.000     C          0.679576  
         C3        1.0000    0.04954   0.38242   0.24320   Biso      1.000     C          -0.031794           
         C4        1.0000    0.95753   0.30890   0.25140   Biso      1.000     C          -0.083071           
         C5        1.0000    0.22088   0.32392   0.24980   Biso      1.000     C          -0.085449           
         C6        1.0000    0.74145   0.86110   0.12904   Biso      1.000     C          0.679402  
         C7        1.0000    0.61683   0.93880   0.06498   Biso      1.000     C          -0.035275           
         C8        1.0000    0.66899   0.97010   0.00450   Biso      1.000     C          -0.077092           
         C9        1.0000    0.45429   0.64280   0.36732   Biso      1.000     C          0.685031  
         C10       1.0000    0.47728   0.57081   0.43592   Biso      1.000     C          -0.037914           
         C11       1.0000    0.62875   0.53552   0.49024   Biso      1.000     C          -0.080675           
         C12       1.0000    0.91274   0.02453   0.55778   Biso      1.000     C          -0.08275  
         C13       1.0000    0.35496   0.52453   0.44222   Biso      1.000     C          -0.080916           
         C14       1.0000    0.19366   0.11758   0.24320   Biso      1.000     C          -0.032481           
         C15       1.0000    0.29387   0.19110   0.25140   Biso      1.000     C          -0.082763           
         C16       1.0000    0.02892   0.17608   0.24980   Biso      1.000     C          -0.085526           
         C17       1.0000    0.38759   0.63890   0.12904   Biso      1.000     C          0.681947  
         C18       1.0000    0.44815   0.56120   0.06498   Biso      1.000     C          -0.036834           
         C19       1.0000    0.60476   0.54792   0.05460   Biso      1.000     C          -0.081723           
         C20       1.0000    0.33551   0.52990   0.00450   Biso      1.000     C          -0.075669           
         C21       1.0000    0.91303   0.85720   0.36732   Biso      1.000     C          0.684873  
         C22       1.0000    0.86149   0.96448   0.49024   Biso      1.000     C          -0.079654           
         C23       1.0000    0.08726   0.97547   0.44222   Biso      1.000     C          -0.08267  
         C24       1.0000    0.27358   0.97815   0.25036   Biso      1.000     C          0.679165  
         C25       1.0000    0.13851   0.03552   0.50976   Biso      1.000     C          -0.079924           
         C26       1.0000    0.44984   0.95208   0.05460   Biso      1.000     C          -0.081133           
         C27       1.0000    0.08697   0.14280   0.63268   Biso      1.000     C          0.684933  
         C28       1.0000    0.04136   0.07081   0.56408   Biso      1.000     C          -0.038761           
         C29       1.0000    0.95046   0.61758   0.75680   Biso      1.000     C          -0.031733           
         C30       1.0000    0.04247   0.69110   0.74860   Biso      1.000     C          -0.083136           
         C31       1.0000    0.77912   0.67608   0.75020   Biso      1.000     C          -0.085433           
         C32       1.0000    0.25855   0.13890   0.87096   Biso      1.000     C          0.679567  
         C33       1.0000    0.38317   0.06120   0.93502   Biso      1.000     C          -0.035694           
         C34       1.0000    0.55016   0.04792   0.94540   Biso      1.000     C          -0.081853           
         C35       1.0000    0.33101   0.02990   0.99550   Biso      1.000     C          -0.07762  
         C36       1.0000    0.54571   0.35720   0.63268   Biso      1.000     C          0.685105  
         C37       1.0000    0.52272   0.42919   0.56408   Biso      1.000     C          -0.038335           
         C38       1.0000    0.02322   0.47815   0.74964   Biso      1.000     C          0.679668  
         C39       1.0000    0.64504   0.47547   0.55778   Biso      1.000     C          -0.081079           
         C40       1.0000    0.37125   0.46448   0.50976   Biso      1.000     C          -0.08046  
         C41       1.0000    0.39524   0.45208   0.94540   Biso      1.000     C          -0.08111  
         C42       1.0000    0.55185   0.43880   0.93502   Biso      1.000     C          -0.037644           
         C43       1.0000    0.61241   0.36110   0.87096   Biso      1.000     C          0.682047  
         C44       1.0000    0.66449   0.47010   0.99550   Biso      1.000     C          -0.076076           
         C45       1.0000    0.70613   0.80890   0.74860   Biso      1.000     C          -0.082758           
         C46       1.0000    0.80634   0.88242   0.75680   Biso      1.000     C          -0.032499           
         C47       1.0000    0.72642   0.02185   0.74964   Biso      1.000     C          0.679213  
         C48       1.0000    0.97108   0.82392   0.75020   Biso      1.000     C          -0.085418           
         H1        1.0000    0.58807   0.10095   0.90537   Biso      1.000     H          0.111725  
         H2        1.0000    0.26053   0.05609   0.52088   Biso      1.000     H          0.113192  
         H3        1.0000    0.19137   0.06833   0.99605   Biso      1.000     H          0.11296   
         H4        1.0000    0.26036   0.44391   0.52088   Biso      1.000     H          0.113041  
         H5        1.0000    0.75886   0.46391   0.60833   Biso      1.000     H          0.103102  
         H6        1.0000    0.56377   0.85786   0.74055   Biso      1.000     H          0.112835  
         H7        1.0000    0.04839   0.88509   0.74606   Biso      1.000     H          0.11084   
         H8        1.0000    0.31730   0.39905   0.90537   Biso      1.000     H          0.111456  
         H9        1.0000    0.80468   0.43167   0.99605   Biso      1.000     H          0.112433  
         H10       1.0000    0.84946   0.03609   0.60833   Biso      1.000     H          0.104079  
         H11       1.0000    0.74021   0.55576   0.47953   Biso      1.000     H          0.113206  
         H12       1.0000    0.30220   0.38519   0.25393   Biso      1.000     H          0.110706  
         H13       1.0000    0.41193   0.89905   0.09463   Biso      1.000     H          0.111928  
         H14       1.0000    0.80810   0.93253   0.00301   Biso      1.000     H          0.112871  
         H15       1.0000    0.24114   0.53609   0.39167   Biso      1.000     H          0.103209  
         H16       1.0000    0.19532   0.56833   0.00395   Biso      1.000     H          0.112549  
         H17       1.0000    0.68438   0.60024   0.09409   Biso      1.000     H          0.112221  
         H18       1.0000    0.43623   0.14214   0.25945   Biso      1.000     H          0.112816  
         H19       1.0000    0.95174   0.11481   0.25393   Biso      1.000     H          0.110891  
         H20       1.0000    0.69780   0.61481   0.74607   Biso      1.000     H          0.110713  
         H21       1.0000    0.82322   0.35786   0.25945   Biso      1.000     H          0.112802  
         H22       1.0000    0.17678   0.64214   0.74055   Biso      1.000     H          0.112799  
         H23       1.0000    0.15113   0.96426   0.39192   Biso      1.000     H          0.104263  
         H24       1.0000    0.73947   0.94391   0.47912   Biso      1.000     H          0.113249  
         O1        1.0000    0.19118   0.90591   0.22516   Biso      1.000     O          -0.670098           
         O2        1.0000    0.16167   0.42320   0.73074   Biso      1.000     O          -0.665567           
         O3        1.0000    0.96602   0.40591   0.77484   Biso      1.000     O          -0.669987           
         O4        1.0000    0.29321   0.18076   0.81662   Biso      1.000     O          -0.686161           
         O5        1.0000    0.10364   0.16140   0.86074   Biso      1.000     O          -0.642451           
         O6        1.0000    0.43181   0.32356   0.64450   Biso      1.000     O          -0.643716           
         O7        1.0000    0.67188   0.34010   0.68844   Biso      1.000     O          -0.685235           
         O8        1.0000    0.56907   0.07680   0.73074   Biso      1.000     O          -0.664914           
         O9        1.0000    0.80882   0.09409   0.77484   Biso      1.000     O          -0.670199           
         O10       1.0000    0.43093   0.92320   0.26926   Biso      1.000     O          -0.664951           
         O11       1.0000    0.75710   0.33860   0.86074   Biso      1.000     O          -0.643714           
         O12       1.0000    0.52341   0.31924   0.81662   Biso      1.000     O          -0.687003           
         O13       1.0000    0.01656   0.15990   0.68844   Biso      1.000     O          -0.685414           
         O14       1.0000    0.83833   0.57680   0.26926   Biso      1.000     O          -0.665506           
         O15       1.0000    0.03398   0.59409   0.22516   Biso      1.000     O          -0.670068           
         O16       1.0000    0.70679   0.81924   0.18338   Biso      1.000     O          -0.686265           
         O17       1.0000    0.89636   0.83860   0.13926   Biso      1.000     O          -0.642504           
         O18       1.0000    0.56819   0.67644   0.35550   Biso      1.000     O          -0.643729           
         O19       1.0000    0.32812   0.65990   0.31156   Biso      1.000     O          -0.685256           
         O20       1.0000    0.98344   0.84010   0.31156   Biso      1.000     O          -0.685401           
         O21       1.0000    0.78731   0.82356   0.35550   Biso      1.000     O          -0.643281           
         O22       1.0000    0.24290   0.66140   0.13926   Biso      1.000     O          -0.643795           
         O23       1.0000    0.47659   0.68076   0.18338   Biso      1.000     O          -0.686954           
         O24       1.0000    0.21269   0.17644   0.64450   Biso      1.000     O          -0.643271           
         Sc1       1.0000    0.11286   0.75000   0.22572   Biso      1.000     Sc          1.882435  
         Sc2       1.0000    0.88714   0.25000   0.77428   Biso      1.000     Sc          1.882362  
         Sc3       1.0000    0.63396   0.75000   0.26792   Biso      1.000     Sc          1.87588   
         Sc4       1.0000    0.36604   0.25000   0.73208   Biso      1.000     Sc          1.875798 