
##########################################################################
#               Crystallographic Information Format file
#               Produced by PyCifRW module
#
#  This is a CIF file.  CIF has been adopted by the International
#  Union of Crystallography as the standard for data archiving and
#  transmission.
#
#  For information on this file format, follow the CIF links at
#  http://www.iucr.org
##########################################################################

data_image0

_cell_length_a                          8.7157
_cell_length_b                          11.2406
_cell_length_c                          17.7265
_cell_angle_alpha                       84.5311
_cell_angle_beta                        75.7689
_cell_angle_gamma                       67.1893
_symmetry_space_group_name_H-M          'P 1'
_symmetry_int_tables_number             1
loop_
  _symmetry_equiv_pos_as_xyz
         'x, y, z' 
loop_
  _atom_site_label
  _atom_site_occupancy
  _atom_site_fract_x
  _atom_site_fract_y
  _atom_site_fract_z
  _atom_site_thermal_displace_type
  _atom_site_B_iso_or_equiv
  _atom_site_type_symbol
  _atom_site_charge
         C1        1.0000    0.44036   0.61928   0.75000   Biso      1.000     C          -0.037462           
         C2        1.0000    0.88534   0.46080   0.55592   Biso      1.000     C          -0.08275  
         C3        1.0000    0.20157   0.81714   0.75024   Biso      1.000     C          -0.08452799999999999          
         C4        1.0000    0.76446   0.13924   0.63244   Biso      1.000     C          0.6823279999999999  
         C5        1.0000    0.88866   0.06290   0.56398   Biso      1.000     C          -0.042232           
         C6        1.0000    0.82258   0.03056   0.50848   Biso      1.000     C          -0.086868           
         C7        1.0000    0.05874   0.03920   0.55592   Biso      1.000     C          -0.082315           
         C8        1.0000    0.03614   0.36076   0.86756   Biso      1.000     C          0.6801    
         C9        1.0000    0.01554   0.43710   0.93602   Biso      1.000     C          -0.043332999999999997         
         C10       1.0000    0.86162   0.46944   0.99152   Biso      1.000     C          -0.085066           
         C11       1.0000    0.15386   0.46080   0.94408   Biso      1.000     C          -0.082663           
         C12       1.0000    0.16894   0.46944   0.50848   Biso      1.000     C          -0.08552799999999999          
         C13       1.0000    0.48129   0.81714   0.74976   Biso      1.000     C          -0.082794           
         C14       1.0000    0.54844   0.06290   0.93602   Biso      1.000     C          -0.04156  
         C15       1.0000    0.64686   0.03056   0.99152   Biso      1.000     C          -0.084049           
         C16       1.0000    0.40206   0.03920   0.94408   Biso      1.000     C          -0.082695           
         C17       1.0000    0.48950   0.52100   0.25000   Biso      1.000     C          0.680398  
         C18       1.0000    0.55964   0.38072   0.25000   Biso      1.000     C          -0.037525           
         C19       1.0000    0.76050   0.97900   0.25000   Biso      1.000     C          0.680933  
         C20       1.0000    0.69036   0.11928   0.25000   Biso      1.000     C          -0.038127999999999995         
         C21       1.0000    0.51050   0.47900   0.75000   Biso      1.000     C          0.680269  
         C22       1.0000    0.23950   0.02100   0.75000   Biso      1.000     C          0.680711  
         C23       1.0000    0.30964   0.88072   0.75000   Biso      1.000     C          -0.038097000000000006         
         C24       1.0000    0.59630   0.13924   0.86756   Biso      1.000     C          0.6794060000000001  
         C25       1.0000    0.04736   0.43710   0.56398   Biso      1.000     C          -0.041436           
         C26       1.0000    0.26895   0.68286   0.74976   Biso      1.000     C          -0.08418400000000001          
         C27       1.0000    0.54819   0.68286   0.75024   Biso      1.000     C          -0.085257           
         C28       1.0000    0.10310   0.36076   0.63244   Biso      1.000     C          0.685062  
         C29       1.0000    0.89690   0.63924   0.36756   Biso      1.000     C          0.685404  
         C30       1.0000    0.95264   0.56290   0.43602   Biso      1.000     C          -0.043825           
         C31       1.0000    0.83106   0.53056   0.49152   Biso      1.000     C          -0.086262           
         C32       1.0000    0.11466   0.53920   0.44408   Biso      1.000     C          -0.085374           
         C33       1.0000    0.79843   0.18286   0.24976   Biso      1.000     C          -0.084486           
         C34       1.0000    0.23554   0.86076   0.36756   Biso      1.000     C          0.682495  
         C35       1.0000    0.11134   0.93710   0.43602   Biso      1.000     C          -0.042876           
         C36       1.0000    0.17742   0.96944   0.49152   Biso      1.000     C          -0.087538           
         C37       1.0000    0.94126   0.96080   0.44408   Biso      1.000     C          -0.08278300000000001          
         C38       1.0000    0.45181   0.31714   0.24976   Biso      1.000     C          -0.08518099999999999          
         C39       1.0000    0.96386   0.63924   0.13244   Biso      1.000     C          0.6803239999999999  
         C40       1.0000    0.73105   0.31714   0.25024   Biso      1.000     C          -0.08415  
         C41       1.0000    0.35314   0.96944   0.00848   Biso      1.000     C          -0.085408           
         C42       1.0000    0.45156   0.93710   0.06398   Biso      1.000     C          -0.044399           
         C43       1.0000    0.40370   0.86076   0.13244   Biso      1.000     C          0.67982   
         C44       1.0000    0.59794   0.96080   0.05592   Biso      1.000     C          -0.085352           
         C45       1.0000    0.84614   0.53920   0.05592   Biso      1.000     C          -0.082959           
         C46       1.0000    0.13838   0.53056   0.00848   Biso      1.000     C          -0.085654           
         C47       1.0000    0.98446   0.56290   0.06398   Biso      1.000     C          -0.044058           
         C48       1.0000    0.51871   0.18286   0.25024   Biso      1.000     C          -0.082695           
         H1        1.0000    0.20303   0.57635   0.39850   Biso      1.000     H          0.11358299999999999           
         H2        1.0000    0.23954   0.93898   0.01707   Biso      1.000     H          0.11947200000000001           
         H3        1.0000    0.93949   0.12785   0.24918   Biso      1.000     H          0.116476  
         H4        1.0000    0.32149   0.93898   0.48293   Biso      1.000     H          0.120457  
         H5        1.0000    0.89847   0.92365   0.39850   Biso      1.000     H          0.113479  
         H6        1.0000    0.81653   0.37215   0.25082   Biso      1.000     H          0.11668900000000001           
         H7        1.0000    0.24339   0.56102   0.01707   Biso      1.000     H          0.119977  
         H8        1.0000    0.72062   0.57635   0.10150   Biso      1.000     H          0.11321600000000001           
         H9        1.0000    0.43265   0.12785   0.25082   Biso      1.000     H          0.116219  
         H10       1.0000    0.67788   0.92365   0.10150   Biso      1.000     H          0.113875  
         H11       1.0000    0.67851   0.06102   0.51707   Biso      1.000     H          0.12057799999999999           
         H12       1.0000    0.30643   0.44202   0.51350   Biso      1.000     H          0.120709  
         H13       1.0000    0.79697   0.42365   0.60150   Biso      1.000     H          0.11421700000000001           
         H14       1.0000    0.06051   0.87215   0.75082   Biso      1.000     H          0.116487  
         H15       1.0000    0.10347   0.07573   0.60102   Biso      1.000     H          0.11378900000000002           
         H16       1.0000    0.56735   0.87215   0.74918   Biso      1.000     H          0.11617899999999999           
         H17       1.0000    0.28021   0.42427   0.89898   Biso      1.000     H          0.113631  
         H18       1.0000    0.18347   0.62785   0.74918   Biso      1.000     H          0.116698  
         H19       1.0000    0.75661   0.43898   0.98293   Biso      1.000     H          0.120109  
         H20       1.0000    0.69559   0.56102   0.48293   Biso      1.000     H          0.120298  
         H21       1.0000    0.68868   0.62785   0.75082   Biso      1.000     H          0.116704  
         H22       1.0000    0.31132   0.37215   0.24918   Biso      1.000     H          0.116763  
         H23       1.0000    0.32081   0.07573   0.89898   Biso      1.000     H          0.11481199999999998           
         H24       1.0000    0.76194   0.05798   0.98650   Biso      1.000     H          0.120025  
         O1        1.0000    0.91914   0.33072   0.85852   Biso      1.000     O          -0.634367           
         O2        1.0000    0.56510   0.58256   0.27084   Biso      1.000     O          -0.670525           
         O3        1.0000    0.74986   0.66928   0.35852   Biso      1.000     O          -0.6369100000000001           
         O4        1.0000    0.00309   0.66862   0.31544   Biso      1.000     O          -0.690243           
         O5        1.0000    0.66406   0.91744   0.27084   Biso      1.000     O          -0.670828           
         O6        1.0000    0.39162   0.83072   0.35852   Biso      1.000     O          -0.635203           
         O7        1.0000    0.18147   0.83138   0.31544   Biso      1.000     O          -0.689244           
         O8        1.0000    0.35234   0.58256   0.22916   Biso      1.000     O          -0.6702   
         O9        1.0000    0.08086   0.66928   0.14148   Biso      1.000     O          -0.6344920000000001           
         O10       1.0000    0.64766   0.41744   0.77084   Biso      1.000     O          -0.6703560000000001           
         O11       1.0000    0.91850   0.91744   0.22916   Biso      1.000     O          -0.6704720000000001           
         O12       1.0000    0.82829   0.66862   0.18456   Biso      1.000     O          -0.687704           
         O13       1.0000    0.48715   0.83138   0.18456   Biso      1.000     O          -0.687433           
         O14       1.0000    0.43490   0.41744   0.72916   Biso      1.000     O          -0.670197           
         O15       1.0000    0.25014   0.33072   0.64148   Biso      1.000     O          -0.637119           
         O16       1.0000    0.99691   0.33138   0.68456   Biso      1.000     O          -0.6906680000000001           
         O17       1.0000    0.33594   0.08256   0.72916   Biso      1.000     O          -0.67096  
         O18       1.0000    0.60838   0.16928   0.64148   Biso      1.000     O          -0.6350140000000001           
         O19       1.0000    0.81853   0.16862   0.68456   Biso      1.000     O          -0.689192           
         O20       1.0000    0.51285   0.16862   0.81544   Biso      1.000     O          -0.687897           
         O21       1.0000    0.72234   0.16928   0.85852   Biso      1.000     O          -0.634178           
         O22       1.0000    0.08150   0.08256   0.77084   Biso      1.000     O          -0.670221           
         O23       1.0000    0.17171   0.33138   0.81544   Biso      1.000     O          -0.687621           
         O24       1.0000    0.27766   0.83072   0.14148   Biso      1.000     O          -0.633844           
         Sc1       1.0000    0.86445   0.25000   0.77110   Biso      1.000     Sc          1.8738860000000002  
         Sc2       1.0000    0.38555   0.25000   0.72890   Biso      1.000     Sc          1.8737439999999999  
         Sc3       1.0000    0.13555   0.75000   0.22890   Biso      1.000     Sc          1.873591  
         Sc4       1.0000    0.61445   0.75000   0.27110   Biso      1.000     Sc          1.873443 