
##########################################################################
#               Crystallographic Information Format file
#               Produced by PyCifRW module
#
#  This is a CIF file.  CIF has been adopted by the International
#  Union of Crystallography as the standard for data archiving and
#  transmission.
#
#  For information on this file format, follow the CIF links at
#  http://www.iucr.org
##########################################################################

data_image0

_cell_length_a                          8.7346
_cell_length_b                          11.2489
_cell_length_c                          17.7229
_cell_angle_alpha                       84.5102
_cell_angle_beta                        75.7345
_cell_angle_gamma                       67.1551
_symmetry_space_group_name_H-M          'P 1'
_symmetry_int_tables_number             1
loop_
  _symmetry_equiv_pos_as_xyz
         'x, y, z' 
loop_
  _atom_site_label
  _atom_site_occupancy
  _atom_site_fract_x
  _atom_site_fract_y
  _atom_site_fract_z
  _atom_site_thermal_displace_type
  _atom_site_B_iso_or_equiv
  _atom_site_type_symbol
  _atom_site_charge
         C1        1.0000    0.06078   0.37844   0.75000   Biso      1.000     C          -0.038972           
         C2        1.0000    0.34350   0.53926   0.55634   Biso      1.000     C          -0.077516           
         C3        1.0000    0.01851   0.18054   0.75064   Biso      1.000     C          -0.09509400000000001          
         C4        1.0000    0.89981   0.85948   0.63350   Biso      1.000     C          0.666087  
         C5        1.0000    0.95912   0.93746   0.56150   Biso      1.000     C          -0.038810000000000004         
         C6        1.0000    0.84652   0.96946   0.51010   Biso      1.000     C          -0.100836           
         C7        1.0000    0.10016   0.96074   0.55634   Biso      1.000     C          -0.077878           
         C8        1.0000    0.39279   0.64052   0.86650   Biso      1.000     C          0.6697569999999999  
         C9        1.0000    0.45808   0.56254   0.93850   Biso      1.000     C          -0.048099           
         C10       1.0000    0.32608   0.53054   0.98990   Biso      1.000     C          -0.10226  
         C11       1.0000    0.61724   0.53926   0.94366   Biso      1.000     C          -0.077251           
         C12       1.0000    0.64338   0.53054   0.51010   Biso      1.000     C          -0.102586           
         C13       1.0000    0.30095   0.18054   0.74936   Biso      1.000     C          -0.091512           
         C14       1.0000    0.60342   0.93746   0.93850   Biso      1.000     C          -0.050457           
         C15       1.0000    0.68402   0.96946   0.98990   Biso      1.000     C          -0.099901           
         C16       1.0000    0.43910   0.96074   0.94366   Biso      1.000     C          -0.078192           
         C17       1.0000    0.01364   0.47272   0.25000   Biso      1.000     C          0.668358  
         C18       1.0000    0.93922   0.62156   0.25000   Biso      1.000     C          -0.038799           
         C19       1.0000    0.73636   0.02728   0.25000   Biso      1.000     C          0.667616  
         C20       1.0000    0.81078   0.87844   0.25000   Biso      1.000     C          -0.037920999999999996         
         C21       1.0000    0.98636   0.52728   0.75000   Biso      1.000     C          0.668027  
         C22       1.0000    0.26364   0.97272   0.75000   Biso      1.000     C          0.667354  
         C23       1.0000    0.18922   0.12156   0.75000   Biso      1.000     C          -0.037695           
         C24       1.0000    0.74071   0.85948   0.86650   Biso      1.000     C          0.669172  
         C25       1.0000    0.47938   0.56254   0.56150   Biso      1.000     C          -0.048109           
         C26       1.0000    0.94969   0.31946   0.74936   Biso      1.000     C          -0.09023099999999999          
         C27       1.0000    0.23085   0.31946   0.75064   Biso      1.000     C          -0.09299099999999999          
         C28       1.0000    0.46669   0.64052   0.63350   Biso      1.000     C          0.666674  
         C29       1.0000    0.53331   0.35948   0.36650   Biso      1.000     C          0.666945  
         C30       1.0000    0.52062   0.43746   0.43850   Biso      1.000     C          -0.048538           
         C31       1.0000    0.35662   0.46946   0.48990   Biso      1.000     C          -0.10259000000000001          
         C32       1.0000    0.65650   0.46074   0.44366   Biso      1.000     C          -0.077627           
         C33       1.0000    0.98149   0.81946   0.24936   Biso      1.000     C          -0.094973           
         C34       1.0000    0.10019   0.14052   0.36650   Biso      1.000     C          0.666244  
         C35       1.0000    0.04088   0.06254   0.43850   Biso      1.000     C          -0.045587           
         C36       1.0000    0.15348   0.03054   0.48990   Biso      1.000     C          -0.104645           
         C37       1.0000    0.89984   0.03926   0.44366   Biso      1.000     C          -0.08525  
         C38       1.0000    0.76915   0.68054   0.24936   Biso      1.000     C          -0.092796           
         C39       1.0000    0.60721   0.35948   0.13350   Biso      1.000     C          0.669912  
         C40       1.0000    0.05031   0.68054   0.25064   Biso      1.000     C          -0.090035           
         C41       1.0000    0.31598   0.03054   0.01010   Biso      1.000     C          -0.099869           
         C42       1.0000    0.39658   0.06254   0.06150   Biso      1.000     C          -0.050727999999999995         
         C43       1.0000    0.25929   0.14052   0.13350   Biso      1.000     C          0.669411  
         C44       1.0000    0.56090   0.03926   0.05634   Biso      1.000     C          -0.078325           
         C45       1.0000    0.38276   0.46074   0.05634   Biso      1.000     C          -0.077209           
         C46       1.0000    0.67392   0.46946   0.01010   Biso      1.000     C          -0.103326           
         C47       1.0000    0.54192   0.43746   0.06150   Biso      1.000     C          -0.049561           
         C48       1.0000    0.69905   0.81946   0.25064   Biso      1.000     C          -0.09163099999999999          
         H1        1.0000    0.77857   0.42537   0.39601   Biso      1.000     H          0.11225999999999998           
         H2        1.0000    0.17141   0.06069   0.02484   Biso      1.000     H          0.132838  
         H3        1.0000    0.06776   0.87441   0.24790   Biso      1.000     H          0.12224000000000002           
         H4        1.0000    0.26789   0.06069   0.47516   Biso      1.000     H          0.133455  
         H5        1.0000    0.82542   0.07463   0.39600   Biso      1.000     H          0.11263499999999999           
         H6        1.0000    0.19007   0.62559   0.25210   Biso      1.000     H          0.12097000000000001           
         H7        1.0000    0.80375   0.43931   0.02484   Biso      1.000     H          0.1338    
         H8        1.0000    0.29605   0.42537   0.10400   Biso      1.000     H          0.11229700000000001           
         H9        1.0000    0.55783   0.87441   0.25210   Biso      1.000     H          0.120976  
         H10       1.0000    0.59995   0.07463   0.10400   Biso      1.000     H          0.11255599999999999           
         H11       1.0000    0.72760   0.94697   0.51596   Biso      1.000     H          0.13466199999999998           
         H12       1.0000    0.74305   0.56069   0.52484   Biso      1.000     H          0.13383599999999998           
         H13       1.0000    0.22143   0.57463   0.60399   Biso      1.000     H          0.11255599999999999           
         H14       1.0000    0.93224   0.12559   0.75210   Biso      1.000     H          0.1222    
         H15       1.0000    0.17755   0.92675   0.60295   Biso      1.000     H          0.11422   
         H16       1.0000    0.44217   0.12559   0.74790   Biso      1.000     H          0.121075  
         H17       1.0000    0.70725   0.57325   0.89705   Biso      1.000     H          0.11327899999999999           
         H18       1.0000    0.80993   0.37441   0.74790   Biso      1.000     H          0.120955  
         H19       1.0000    0.19625   0.56069   0.97516   Biso      1.000     H          0.13388   
         H20       1.0000    0.25695   0.43931   0.47516   Biso      1.000     H          0.133657  
         H21       1.0000    0.31566   0.37441   0.75210   Biso      1.000     H          0.12158699999999999           
         H22       1.0000    0.68434   0.62559   0.24790   Biso      1.000     H          0.121646  
         H23       1.0000    0.40005   0.92537   0.89600   Biso      1.000     H          0.11274100000000001           
         H24       1.0000    0.82859   0.93931   0.97516   Biso      1.000     H          0.132873  
         O1        1.0000    0.24763   0.66924   0.85936   Biso      1.000     O          -0.611437           
         O2        1.0000    0.15099   0.41614   0.27078   Biso      1.000     O          -0.6565810000000001           
         O3        1.0000    0.41687   0.33076   0.35936   Biso      1.000     O          -0.611209           
         O4        1.0000    0.67233   0.32996   0.31578   Biso      1.000     O          -0.693261           
         O5        1.0000    0.57823   0.08386   0.27078   Biso      1.000     O          -0.6572399999999999           
         O6        1.0000    0.22377   0.16924   0.35936   Biso      1.000     O          -0.612053           
         O7        1.0000    0.01189   0.17004   0.31578   Biso      1.000     O          -0.692342           
         O8        1.0000    0.93287   0.41614   0.22922   Biso      1.000     O          -0.657724           
         O9        1.0000    0.75237   0.33076   0.14064   Biso      1.000     O          -0.611157           
         O10       1.0000    0.06713   0.58386   0.77078   Biso      1.000     O          -0.6579149999999999           
         O11       1.0000    0.83791   0.08386   0.22922   Biso      1.000     O          -0.656855           
         O12       1.0000    0.49771   0.32996   0.18422   Biso      1.000     O          -0.695657           
         O13       1.0000    0.31807   0.17004   0.18422   Biso      1.000     O          -0.694192           
         O14       1.0000    0.84901   0.58386   0.72922   Biso      1.000     O          -0.6564   
         O15       1.0000    0.58313   0.66924   0.64064   Biso      1.000     O          -0.6105689999999999           
         O16       1.0000    0.32767   0.67004   0.68422   Biso      1.000     O          -0.693239           
         O17       1.0000    0.42177   0.91614   0.72922   Biso      1.000     O          -0.656618           
         O18       1.0000    0.77623   0.83076   0.64064   Biso      1.000     O          -0.61324  
         O19       1.0000    0.98811   0.82996   0.68422   Biso      1.000     O          -0.693826           
         O20       1.0000    0.68193   0.82996   0.81578   Biso      1.000     O          -0.693852           
         O21       1.0000    0.89301   0.83076   0.85936   Biso      1.000     O          -0.611572           
         O22       1.0000    0.16209   0.91614   0.77078   Biso      1.000     O          -0.657076           
         O23       1.0000    0.50229   0.67004   0.81578   Biso      1.000     O          -0.695823           
         O24       1.0000    0.10699   0.16924   0.14064   Biso      1.000     O          -0.611499           
         Sc1       1.0000    0.11427   0.75000   0.77146   Biso      1.000     Sc          1.865091  
         Sc2       1.0000    0.63573   0.75000   0.72854   Biso      1.000     Sc          1.865606  
         Sc3       1.0000    0.88573   0.25000   0.22854   Biso      1.000     Sc          1.8647209999999999  
         Sc4       1.0000    0.36427   0.25000   0.27146   Biso      1.000     Sc          1.864968 