
##########################################################################
#               Crystallographic Information Format file
#               Produced by PyCifRW module
#
#  This is a CIF file.  CIF has been adopted by the International
#  Union of Crystallography as the standard for data archiving and
#  transmission.
#
#  For information on this file format, follow the CIF links at
#  http://www.iucr.org
##########################################################################

data_image0

_cell_length_a                          8.7529
_cell_length_b                          11.2626
_cell_length_c                          17.7276
_cell_angle_alpha                       84.4951
_cell_angle_beta                        75.7076
_cell_angle_gamma                       67.134
_symmetry_space_group_name_H-M          'P 1'
_symmetry_int_tables_number             1
loop_
  _symmetry_equiv_pos_as_xyz
         'x, y, z' 
loop_
  _atom_site_label
  _atom_site_occupancy
  _atom_site_fract_x
  _atom_site_fract_y
  _atom_site_fract_z
  _atom_site_thermal_displace_type
  _atom_site_B_iso_or_equiv
  _atom_site_type_symbol
  _atom_site_charge
         C1        1.0000    0.80838   0.38324   0.25000   Biso      1.000     C          -0.035194           
         C2        1.0000    0.90236   0.53890   0.44422   Biso      1.000     C          -0.079099           
         C3        1.0000    0.77039   0.18308   0.25078   Biso      1.000     C          -0.083225           
         C4        1.0000    0.53590   0.85908   0.36972   Biso      1.000     C          0.672639  
         C5        1.0000    0.51715   0.93380   0.43550   Biso      1.000     C          -0.036037           
         C6        1.0000    0.36679   0.96634   0.49262   Biso      1.000     C          -0.083219           
         C7        1.0000    0.65342   0.96110   0.44422   Biso      1.000     C          -0.079873           
         C8        1.0000    0.26470   0.64092   0.13028   Biso      1.000     C          0.673188  
         C9        1.0000    0.38645   0.56620   0.06450   Biso      1.000     C          -0.038031           
         C10       1.0000    0.32575   0.53366   0.00738   Biso      1.000     C          -0.08316699999999999          
         C11       1.0000    0.55874   0.53890   0.05578   Biso      1.000     C          -0.07948  
         C12       1.0000    0.14059   0.53366   0.49262   Biso      1.000     C          -0.083022           
         C13       1.0000    0.04653   0.18308   0.24922   Biso      1.000     C          -0.08099500000000001          
         C14       1.0000    0.54905   0.93380   0.06450   Biso      1.000     C          -0.035826           
         C15       1.0000    0.66687   0.96634   0.00738   Biso      1.000     C          -0.082942           
         C16       1.0000    0.38548   0.96110   0.05578   Biso      1.000     C          -0.081066           
         C17       1.0000    0.26101   0.47798   0.75000   Biso      1.000     C          0.671249  
         C18       1.0000    0.19162   0.61676   0.75000   Biso      1.000     C          -0.035119           
         C19       1.0000    0.98899   0.02202   0.75000   Biso      1.000     C          0.671028  
         C20       1.0000    0.05838   0.88324   0.75000   Biso      1.000     C          -0.035467           
         C21       1.0000    0.73899   0.52202   0.25000   Biso      1.000     C          0.671039  
         C22       1.0000    0.01101   0.97798   0.25000   Biso      1.000     C          0.670832  
         C23       1.0000    0.94162   0.11676   0.25000   Biso      1.000     C          -0.035486000000000004         
         C24       1.0000    0.60502   0.85908   0.13028   Biso      1.000     C          0.671762  
         C25       1.0000    0.04735   0.56620   0.43550   Biso      1.000     C          -0.038566           
         C26       1.0000    0.70425   0.31692   0.24922   Biso      1.000     C          -0.081553           
         C27       1.0000    0.97883   0.31692   0.25078   Biso      1.000     C          -0.083479           
         C28       1.0000    0.09438   0.64092   0.36972   Biso      1.000     C          0.674683  
         C29       1.0000    0.90562   0.35908   0.63028   Biso      1.000     C          0.674855  
         C30       1.0000    0.95265   0.43380   0.56450   Biso      1.000     C          -0.039171           
         C31       1.0000    0.85941   0.46634   0.50738   Biso      1.000     C          -0.083526           
         C32       1.0000    0.09764   0.46110   0.55578   Biso      1.000     C          -0.079109           
         C33       1.0000    0.22961   0.81692   0.74922   Biso      1.000     C          -0.083196           
         C34       1.0000    0.46410   0.14092   0.63028   Biso      1.000     C          0.672863  
         C35       1.0000    0.48285   0.06620   0.56450   Biso      1.000     C          -0.037129           
         C36       1.0000    0.63321   0.03366   0.50738   Biso      1.000     C          -0.084425           
         C37       1.0000    0.34658   0.03890   0.55578   Biso      1.000     C          -0.080682           
         C38       1.0000    0.02117   0.68308   0.74922   Biso      1.000     C          -0.08344  
         C39       1.0000    0.73530   0.35908   0.86972   Biso      1.000     C          0.6733600000000001  
         C40       1.0000    0.29575   0.68308   0.75078   Biso      1.000     C          -0.08150800000000001          
         C41       1.0000    0.33313   0.03366   0.99262   Biso      1.000     C          -0.083143           
         C42       1.0000    0.45095   0.06620   0.93550   Biso      1.000     C          -0.036633           
         C43       1.0000    0.39498   0.14092   0.86972   Biso      1.000     C          0.671934  
         C44       1.0000    0.61452   0.03890   0.94422   Biso      1.000     C          -0.080402           
         C45       1.0000    0.44126   0.46110   0.94422   Biso      1.000     C          -0.078908           
         C46       1.0000    0.67425   0.46634   0.99262   Biso      1.000     C          -0.083437           
         C47       1.0000    0.61355   0.43380   0.93550   Biso      1.000     C          -0.03878  
         C48       1.0000    0.95347   0.81692   0.75078   Biso      1.000     C          -0.080974           
         H1        1.0000    0.17984   0.42391   0.60032   Biso      1.000     H          0.11263800000000002           
         H2        1.0000    0.19565   0.06663   0.98709   Biso      1.000     H          0.116854  
         H3        1.0000    0.31589   0.87180   0.74731   Biso      1.000     H          0.114824  
         H4        1.0000    0.73772   0.06663   0.51291   Biso      1.000     H          0.117079  
         H5        1.0000    0.21983   0.07609   0.60032   Biso      1.000     H          0.11289600000000001           
         H6        1.0000    0.43500   0.62821   0.75269   Biso      1.000     H          0.11486400000000001           
         H7        1.0000    0.81726   0.43337   0.98709   Biso      1.000     H          0.116942  
         H8        1.0000    0.39625   0.42391   0.89968   Biso      1.000     H          0.112488  
         H9        1.0000    0.81231   0.87179   0.75269   Biso      1.000     H          0.114409  
         H10       1.0000    0.70407   0.07609   0.89968   Biso      1.000     H          0.11280499999999999           
         H11       1.0000    0.26090   0.93422   0.48806   Biso      1.000     H          0.116896  
         H12       1.0000    0.25063   0.56663   0.48709   Biso      1.000     H          0.11718900000000002           
         H13       1.0000    0.81898   0.57547   0.40013   Biso      1.000     H          0.11302999999999999           
         H14       1.0000    0.68411   0.12820   0.25269   Biso      1.000     H          0.11483900000000001           
         H15       1.0000    0.78090   0.92453   0.40013   Biso      1.000     H          0.113372  
         H16       1.0000    0.18769   0.12821   0.24731   Biso      1.000     H          0.11443900000000001           
         H17       1.0000    0.60556   0.57547   0.09987   Biso      1.000     H          0.113203  
         H18       1.0000    0.56500   0.37179   0.24731   Biso      1.000     H          0.114883  
         H19       1.0000    0.18274   0.56663   0.01291   Biso      1.000     H          0.11705499999999999           
         H20       1.0000    0.74937   0.43337   0.51291   Biso      1.000     H          0.11708099999999999           
         H21       1.0000    0.06320   0.37180   0.25269   Biso      1.000     H          0.11510899999999999           
         H22       1.0000    0.93680   0.62820   0.74731   Biso      1.000     H          0.115094  
         H23       1.0000    0.29457   0.92453   0.09987   Biso      1.000     H          0.113474  
         H24       1.0000    0.80435   0.93337   0.01291   Biso      1.000     H          0.116972  
         O1        1.0000    0.10620   0.66962   0.13998   Biso      1.000     O          -0.63846  
         O2        1.0000    0.42046   0.41640   0.72908   Biso      1.000     O          -0.6655399999999999           
         O3        1.0000    0.77582   0.33038   0.63998   Biso      1.000     O          -0.639    
         O4        1.0000    0.98543   0.33256   0.68438   Biso      1.000     O          -0.6863819999999999           
         O5        1.0000    0.85046   0.08360   0.72908   Biso      1.000     O          -0.665117           
         O6        1.0000    0.58420   0.16962   0.63998   Biso      1.000     O          -0.637861           
         O7        1.0000    0.33019   0.16744   0.68438   Biso      1.000     O          -0.685743           
         O8        1.0000    0.16314   0.41640   0.77092   Biso      1.000     O          -0.6644909999999999           
         O9        1.0000    0.89380   0.33038   0.86002   Biso      1.000     O          -0.638302           
         O10       1.0000    0.83686   0.58360   0.22908   Biso      1.000     O          -0.66452  
         O11       1.0000    0.06594   0.08360   0.77092   Biso      1.000     O          -0.66474  
         O12       1.0000    0.68201   0.33256   0.81562   Biso      1.000     O          -0.6853779999999999           
         O13       1.0000    0.50237   0.16744   0.81562   Biso      1.000     O          -0.685394           
         O14       1.0000    0.57954   0.58360   0.27092   Biso      1.000     O          -0.66556  
         O15       1.0000    0.22418   0.66962   0.36002   Biso      1.000     O          -0.639073           
         O16       1.0000    0.01457   0.66744   0.31562   Biso      1.000     O          -0.6863279999999999           
         O17       1.0000    0.14954   0.91640   0.27092   Biso      1.000     O          -0.6650659999999999           
         O18       1.0000    0.41580   0.83038   0.36002   Biso      1.000     O          -0.638071           
         O19       1.0000    0.66981   0.83256   0.31562   Biso      1.000     O          -0.685825           
         O20       1.0000    0.49763   0.83256   0.18438   Biso      1.000     O          -0.685363           
         O21       1.0000    0.75382   0.83038   0.13998   Biso      1.000     O          -0.638203           
         O22       1.0000    0.93406   0.91640   0.22908   Biso      1.000     O          -0.664802           
         O23       1.0000    0.31799   0.66744   0.18438   Biso      1.000     O          -0.6853739999999999           
         O24       1.0000    0.24618   0.16962   0.86002   Biso      1.000     O          -0.638055           
         Sc1       1.0000    0.88578   0.75000   0.22844   Biso      1.000     Sc          1.8724610000000002  
         Sc2       1.0000    0.36422   0.75000   0.27156   Biso      1.000     Sc          1.8727740000000002  
         Sc3       1.0000    0.11422   0.25000   0.77156   Biso      1.000     Sc          1.872279  
         Sc4       1.0000    0.63578   0.25000   0.72844   Biso      1.000     Sc          1.872575 