
##########################################################################
#               Crystallographic Information Format file
#               Produced by PyCifRW module
#
#  This is a CIF file.  CIF has been adopted by the International
#  Union of Crystallography as the standard for data archiving and
#  transmission.
#
#  For information on this file format, follow the CIF links at
#  http://www.iucr.org
##########################################################################

data_image0

_cell_length_a                          8.7547
_cell_length_b                          11.1697
_cell_length_c                          17.7359
_cell_angle_alpha                       95.2468
_cell_angle_beta                        104.289
_cell_angle_gamma                       68.2525
_symmetry_space_group_name_H-M          'P 1'
_symmetry_int_tables_number             1
loop_
  _symmetry_equiv_pos_as_xyz
         'x, y, z' 
loop_
  _atom_site_label
  _atom_site_occupancy
  _atom_site_fract_x
  _atom_site_fract_y
  _atom_site_fract_z
  _atom_site_thermal_displace_type
  _atom_site_B_iso_or_equiv
  _atom_site_type_symbol
  _atom_site_charge
         C1        1.0000    0.95052   0.93550   0.43364   Biso      1.000     C          -0.037616000000000004         
         C2        1.0000    0.97560   0.52348   0.24740   Biso      1.000     C          0.664376  
         C3        1.0000    0.05080   0.38369   0.24640   Biso      1.000     C          -0.034598000000000004         
         C4        1.0000    0.95500   0.31020   0.25080   Biso      1.000     C          -0.083865           
         C5        1.0000    0.22160   0.32360   0.24680   Biso      1.000     C          -0.08371100000000001          
         C6        1.0000    0.74081   0.85990   0.12942   Biso      1.000     C          0.673879  
         C7        1.0000    0.61215   0.93690   0.06630   Biso      1.000     C          -0.038232           
         C8        1.0000    0.67250   0.96950   0.00860   Biso      1.000     C          -0.089051           
         C9        1.0000    0.45563   0.64020   0.36606   Biso      1.000     C          0.670297  
         C10       1.0000    0.48312   0.56450   0.43364   Biso      1.000     C          -0.035063           
         C11       1.0000    0.63023   0.53750   0.49206   Biso      1.000     C          -0.081288           
         C12       1.0000    0.90861   0.03050   0.55762   Biso      1.000     C          -0.081799           
         C13       1.0000    0.35099   0.53050   0.44238   Biso      1.000     C          -0.084963           
         C14       1.0000    0.19560   0.11631   0.24640   Biso      1.000     C          -0.033984           
         C15       1.0000    0.29580   0.18980   0.25080   Biso      1.000     C          -0.082772           
         C16       1.0000    0.02520   0.17640   0.24680   Biso      1.000     C          -0.08454400000000001          
         C17       1.0000    0.38861   0.64010   0.12942   Biso      1.000     C          0.673247  
         C18       1.0000    0.45415   0.56310   0.06630   Biso      1.000     C          -0.036452           
         C19       1.0000    0.61292   0.54310   0.05444   Biso      1.000     C          -0.076038           
         C20       1.0000    0.33610   0.53050   0.00860   Biso      1.000     C          -0.088461           
         C21       1.0000    0.91043   0.85980   0.36606   Biso      1.000     C          0.6711060000000001  
         C22       1.0000    0.86183   0.96250   0.49206   Biso      1.000     C          -0.081721           
         C23       1.0000    0.09139   0.96950   0.44238   Biso      1.000     C          -0.08150299999999999          
         C24       1.0000    0.27180   0.97652   0.24740   Biso      1.000     C          0.66268   
         C25       1.0000    0.13817   0.03750   0.50794   Biso      1.000     C          -0.082    
         C26       1.0000    0.44152   0.95690   0.05444   Biso      1.000     C          -0.074494           
         C27       1.0000    0.08957   0.14020   0.63394   Biso      1.000     C          0.671146  
         C28       1.0000    0.04948   0.06450   0.56636   Biso      1.000     C          -0.037723           
         C29       1.0000    0.94920   0.61631   0.75360   Biso      1.000     C          -0.034581           
         C30       1.0000    0.04500   0.68980   0.74920   Biso      1.000     C          -0.083849           
         C31       1.0000    0.77840   0.67640   0.75320   Biso      1.000     C          -0.08368099999999999          
         C32       1.0000    0.25919   0.14010   0.87058   Biso      1.000     C          0.673962  
         C33       1.0000    0.38785   0.06310   0.93370   Biso      1.000     C          -0.038702           
         C34       1.0000    0.55848   0.04310   0.94556   Biso      1.000     C          -0.074814           
         C35       1.0000    0.32750   0.03050   0.99140   Biso      1.000     C          -0.088824           
         C36       1.0000    0.54437   0.35980   0.63394   Biso      1.000     C          0.6703479999999999  
         C37       1.0000    0.51688   0.43550   0.56636   Biso      1.000     C          -0.03526  
         C38       1.0000    0.02440   0.47652   0.75260   Biso      1.000     C          0.6644399999999999  
         C39       1.0000    0.64901   0.46950   0.55762   Biso      1.000     C          -0.085217           
         C40       1.0000    0.36977   0.46250   0.50794   Biso      1.000     C          -0.081255           
         C41       1.0000    0.38708   0.45690   0.94556   Biso      1.000     C          -0.07589299999999999          
         C42       1.0000    0.54585   0.43690   0.93370   Biso      1.000     C          -0.037012           
         C43       1.0000    0.61139   0.35990   0.87058   Biso      1.000     C          0.67335   
         C44       1.0000    0.66390   0.46950   0.99140   Biso      1.000     C          -0.088761           
         C45       1.0000    0.70420   0.81020   0.74920   Biso      1.000     C          -0.082794           
         C46       1.0000    0.80440   0.88369   0.75360   Biso      1.000     C          -0.03375  
         C47       1.0000    0.72820   0.02348   0.75260   Biso      1.000     C          0.662678  
         C48       1.0000    0.97480   0.82360   0.75320   Biso      1.000     C          -0.084787           
         H1        1.0000    0.60369   0.08690   0.90378   Biso      1.000     H          0.11161199999999999           
         H2        1.0000    0.24869   0.07112   0.51397   Biso      1.000     H          0.11321700000000001           
         H3        1.0000    0.18563   0.06413   0.98671   Biso      1.000     H          0.117026  
         H4        1.0000    0.26527   0.42888   0.51397   Biso      1.000     H          0.11314500000000001           
         H5        1.0000    0.77220   0.44160   0.60414   Biso      1.000     H          0.112239  
         H6        1.0000    0.56189   0.85961   0.74234   Biso      1.000     H          0.114227  
         H7        1.0000    0.05679   0.88364   0.75614   Biso      1.000     H          0.11629300000000001           
         H8        1.0000    0.30009   0.41310   0.90378   Biso      1.000     H          0.11164400000000001           
         H9        1.0000    0.80108   0.43587   0.98671   Biso      1.000     H          0.116954  
         H10       1.0000    0.83194   0.05840   0.60414   Biso      1.000     H          0.11136700000000001           
         H11       1.0000    0.73515   0.57088   0.48635   Biso      1.000     H          0.113328  
         H12       1.0000    0.30026   0.38395   0.24386   Biso      1.000     H          0.11606500000000002           
         H13       1.0000    0.39631   0.91310   0.09622   Biso      1.000     H          0.11174   
         H14       1.0000    0.81411   0.93637   0.01272   Biso      1.000     H          0.11735   
         H15       1.0000    0.22780   0.55840   0.39586   Biso      1.000     H          0.11231400000000001           
         H16       1.0000    0.19892   0.56413   0.01329   Biso      1.000     H          0.11704400000000001           
         H17       1.0000    0.70103   0.58640   0.09582   Biso      1.000     H          0.11188599999999999           
         H18       1.0000    0.43811   0.14039   0.25766   Biso      1.000     H          0.114193  
         H19       1.0000    0.94359   0.11605   0.24386   Biso      1.000     H          0.11618900000000001           
         H20       1.0000    0.69974   0.61605   0.75614   Biso      1.000     H          0.116066  
         H21       1.0000    0.81954   0.35961   0.25766   Biso      1.000     H          0.114854  
         H22       1.0000    0.18046   0.64039   0.74234   Biso      1.000     H          0.114837  
         H23       1.0000    0.16847   0.94182   0.39603   Biso      1.000     H          0.11138800000000001           
         H24       1.0000    0.75131   0.92888   0.48603   Biso      1.000     H          0.11325   
         O1        1.0000    0.17640   0.91080   0.22640   Biso      1.000     O          -0.6621279999999999           
         O2        1.0000    0.16246   0.42230   0.73052   Biso      1.000     O          -0.657337           
         O3        1.0000    0.95000   0.41080   0.77360   Biso      1.000     O          -0.663339           
         O4        1.0000    0.30931   0.17630   0.81902   Biso      1.000     O          -0.68477  
         O5        1.0000    0.10228   0.16450   0.86136   Biso      1.000     O          -0.635605           
         O6        1.0000    0.42854   0.32380   0.64348   Biso      1.000     O          -0.63744  
         O7        1.0000    0.67787   0.34370   0.68694   Biso      1.000     O          -0.675022           
         O8        1.0000    0.56806   0.07770   0.73052   Biso      1.000     O          -0.6567310000000001           
         O9        1.0000    0.82360   0.08920   0.77360   Biso      1.000     O          -0.662194           
         O10       1.0000    0.43194   0.92230   0.26948   Biso      1.000     O          -0.656741           
         O11       1.0000    0.75908   0.33550   0.86136   Biso      1.000     O          -0.635778           
         O12       1.0000    0.50971   0.32370   0.81902   Biso      1.000     O          -0.684517           
         O13       1.0000    0.00907   0.15630   0.68694   Biso      1.000     O          -0.674963           
         O14       1.0000    0.83754   0.57770   0.26948   Biso      1.000     O          -0.657283           
         O15       1.0000    0.05000   0.58920   0.22640   Biso      1.000     O          -0.663384           
         O16       1.0000    0.69069   0.82370   0.18098   Biso      1.000     O          -0.6848270000000001           
         O17       1.0000    0.89772   0.83550   0.13864   Biso      1.000     O          -0.635698           
         O18       1.0000    0.57146   0.67620   0.35652   Biso      1.000     O          -0.637466           
         O19       1.0000    0.32213   0.65630   0.31306   Biso      1.000     O          -0.675035           
         O20       1.0000    0.99093   0.84370   0.31306   Biso      1.000     O          -0.67497  
         O21       1.0000    0.78506   0.82380   0.35652   Biso      1.000     O          -0.637871           
         O22       1.0000    0.24092   0.66450   0.13864   Biso      1.000     O          -0.635828           
         O23       1.0000    0.49029   0.67630   0.18098   Biso      1.000     O          -0.684483           
         O24       1.0000    0.21494   0.17620   0.64348   Biso      1.000     O          -0.6378659999999999           
         Sc1       1.0000    0.11331   0.75000   0.22662   Biso      1.000     Sc          1.867313  
         Sc2       1.0000    0.88669   0.25000   0.77338   Biso      1.000     Sc          1.867257  
         Sc3       1.0000    0.63444   0.75000   0.26888   Biso      1.000     Sc          1.8630490000000002  
         Sc4       1.0000    0.36556   0.25000   0.73112   Biso      1.000     Sc          1.8629790000000002 