
##########################################################################
#               Crystallographic Information Format file
#               Produced by PyCifRW module
#
#  This is a CIF file.  CIF has been adopted by the International
#  Union of Crystallography as the standard for data archiving and
#  transmission.
#
#  For information on this file format, follow the CIF links at
#  http://www.iucr.org
##########################################################################

data_image0

_cell_length_a                          8.7255
_cell_length_b                          11.2448
_cell_length_c                          17.7245
_cell_angle_alpha                       84.5201
_cell_angle_beta                        75.7508
_cell_angle_gamma                       67.1713
_symmetry_space_group_name_H-M          'P 1'
_symmetry_int_tables_number             1
loop_
  _symmetry_equiv_pos_as_xyz
         'x, y, z' 
loop_
  _atom_site_label
  _atom_site_occupancy
  _atom_site_fract_x
  _atom_site_fract_y
  _atom_site_fract_z
  _atom_site_thermal_displace_type
  _atom_site_B_iso_or_equiv
  _atom_site_type_symbol
  _atom_site_charge
         C1        1.0000    0.44055   0.61890   0.75000   Biso      1.000     C          -0.041476           
         C2        1.0000    0.88470   0.46132   0.55628   Biso      1.000     C          -0.079194           
         C3        1.0000    0.20169   0.81826   0.75018   Biso      1.000     C          -0.088056           
         C4        1.0000    0.75969   0.14056   0.63406   Biso      1.000     C          0.684964  
         C5        1.0000    0.89084   0.06420   0.56372   Biso      1.000     C          -0.049927           
         C6        1.0000    0.82177   0.02964   0.50922   Biso      1.000     C          -0.094083           
         C7        1.0000    0.05902   0.03868   0.55628   Biso      1.000     C          -0.077489           
         C8        1.0000    0.03431   0.35944   0.86594   Biso      1.000     C          0.682779  
         C9        1.0000    0.01876   0.43580   0.93628   Biso      1.000     C          -0.047789           
         C10       1.0000    0.86063   0.47036   0.99078   Biso      1.000     C          -0.094295           
         C11       1.0000    0.15398   0.46132   0.94372   Biso      1.000     C          -0.079054           
         C12       1.0000    0.16901   0.47036   0.50922   Biso      1.000     C          -0.092566           
         C13       1.0000    0.48005   0.81826   0.74982   Biso      1.000     C          -0.087256           
         C14       1.0000    0.54496   0.06420   0.93628   Biso      1.000     C          -0.044343           
         C15       1.0000    0.64859   0.02964   0.99078   Biso      1.000     C          -0.092045           
         C16       1.0000    0.40230   0.03868   0.94372   Biso      1.000     C          -0.079606           
         C17       1.0000    0.48666   0.52668   0.25000   Biso      1.000     C          0.680774  
         C18       1.0000    0.55945   0.38110   0.25000   Biso      1.000     C          -0.041557           
         C19       1.0000    0.76334   0.97332   0.25000   Biso      1.000     C          0.681046  
         C20       1.0000    0.69055   0.11890   0.25000   Biso      1.000     C          -0.042036000000000004         
         C21       1.0000    0.51334   0.47332   0.75000   Biso      1.000     C          0.680663  
         C22       1.0000    0.23666   0.02668   0.75000   Biso      1.000     C          0.6808569999999999  
         C23       1.0000    0.30945   0.88110   0.75000   Biso      1.000     C          -0.041988           
         C24       1.0000    0.59975   0.14056   0.86594   Biso      1.000     C          0.681161  
         C25       1.0000    0.04544   0.43580   0.56372   Biso      1.000     C          -0.045693           
         C26       1.0000    0.27013   0.68174   0.74982   Biso      1.000     C          -0.087619           
         C27       1.0000    0.54813   0.68174   0.75018   Biso      1.000     C          -0.08886799999999999          
         C28       1.0000    0.10625   0.35944   0.63406   Biso      1.000     C          0.684257  
         C29       1.0000    0.89375   0.64056   0.36594   Biso      1.000     C          0.684537  
         C30       1.0000    0.95456   0.56420   0.43628   Biso      1.000     C          -0.048563999999999996         
         C31       1.0000    0.83099   0.52964   0.49078   Biso      1.000     C          -0.094061           
         C32       1.0000    0.11530   0.53868   0.44372   Biso      1.000     C          -0.082588           
         C33       1.0000    0.79831   0.18174   0.24982   Biso      1.000     C          -0.08802  
         C34       1.0000    0.24031   0.85944   0.36594   Biso      1.000     C          0.6851149999999999  
         C35       1.0000    0.10916   0.93580   0.43628   Biso      1.000     C          -0.050597           
         C36       1.0000    0.17823   0.97036   0.49078   Biso      1.000     C          -0.094534           
         C37       1.0000    0.94098   0.96132   0.44372   Biso      1.000     C          -0.077794           
         C38       1.0000    0.45187   0.31826   0.24982   Biso      1.000     C          -0.088762           
         C39       1.0000    0.96569   0.64056   0.13406   Biso      1.000     C          0.682964  
         C40       1.0000    0.72987   0.31826   0.25018   Biso      1.000     C          -0.08759  
         C41       1.0000    0.35141   0.97036   0.00922   Biso      1.000     C          -0.09436  
         C42       1.0000    0.45504   0.93580   0.06372   Biso      1.000     C          -0.047266           
         C43       1.0000    0.40025   0.85944   0.13406   Biso      1.000     C          0.681453  
         C44       1.0000    0.59770   0.96132   0.05628   Biso      1.000     C          -0.083739           
         C45       1.0000    0.84602   0.53868   0.05628   Biso      1.000     C          -0.079266           
         C46       1.0000    0.13937   0.52964   0.00922   Biso      1.000     C          -0.094704           
         C47       1.0000    0.98124   0.56420   0.06372   Biso      1.000     C          -0.048486           
         C48       1.0000    0.51995   0.18174   0.25018   Biso      1.000     C          -0.087132           
         H1        1.0000    0.20549   0.57256   0.39710   Biso      1.000     H          0.10958299999999999           
         H2        1.0000    0.23519   0.94272   0.01993   Biso      1.000     H          0.12131800000000001           
         H3        1.0000    0.93917   0.12674   0.24939   Biso      1.000     H          0.114624  
         H4        1.0000    0.32209   0.94272   0.48007   Biso      1.000     H          0.121618  
         H5        1.0000    0.89741   0.92744   0.39710   Biso      1.000     H          0.109275  
         H6        1.0000    0.81531   0.37326   0.25061   Biso      1.000     H          0.114944  
         H7        1.0000    0.24488   0.55728   0.01993   Biso      1.000     H          0.121728  
         H8        1.0000    0.72195   0.57256   0.10290   Biso      1.000     H          0.109578  
         H9        1.0000    0.43409   0.12674   0.25061   Biso      1.000     H          0.11483499999999999           
         H10       1.0000    0.67515   0.92744   0.10290   Biso      1.000     H          0.11000599999999999           
         H11       1.0000    0.67791   0.05728   0.51993   Biso      1.000     H          0.12173699999999998           
         H12       1.0000    0.30475   0.44654   0.51547   Biso      1.000     H          0.121526  
         H13       1.0000    0.79451   0.42744   0.60290   Biso      1.000     H          0.11036800000000001           
         H14       1.0000    0.06083   0.87326   0.75061   Biso      1.000     H          0.11464   
         H15       1.0000    0.10407   0.07208   0.60253   Biso      1.000     H          0.109556  
         H16       1.0000    0.56591   0.87326   0.74939   Biso      1.000     H          0.114772  
         H17       1.0000    0.27868   0.42792   0.89747   Biso      1.000     H          0.109923  
         H18       1.0000    0.18469   0.62674   0.74939   Biso      1.000     H          0.11495799999999999           
         H19       1.0000    0.75512   0.44272   0.98007   Biso      1.000     H          0.121851  
         H20       1.0000    0.69783   0.55728   0.48007   Biso      1.000     H          0.12135   
         H21       1.0000    0.68856   0.62674   0.75061   Biso      1.000     H          0.115033  
         H22       1.0000    0.31144   0.37326   0.24939   Biso      1.000     H          0.11510699999999999           
         H23       1.0000    0.32385   0.07208   0.89747   Biso      1.000     H          0.110774  
         H24       1.0000    0.76676   0.05346   0.98453   Biso      1.000     H          0.12153800000000001           
         O1        1.0000    0.91752   0.33080   0.85916   Biso      1.000     O          -0.618477           
         O2        1.0000    0.56640   0.58336   0.27064   Biso      1.000     O          -0.660803           
         O3        1.0000    0.74832   0.66920   0.35916   Biso      1.000     O          -0.61942  
         O4        1.0000    0.00289   0.66964   0.31588   Biso      1.000     O          -0.6925859999999999           
         O5        1.0000    0.66296   0.91664   0.27064   Biso      1.000     O          -0.660628           
         O6        1.0000    0.39252   0.83080   0.35916   Biso      1.000     O          -0.61947  
         O7        1.0000    0.18123   0.83036   0.31588   Biso      1.000     O          -0.692696           
         O8        1.0000    0.35024   0.58336   0.22936   Biso      1.000     O          -0.6606380000000001           
         O9        1.0000    0.08248   0.66920   0.14084   Biso      1.000     O          -0.618711           
         O10       1.0000    0.64976   0.41664   0.77064   Biso      1.000     O          -0.660806           
         O11       1.0000    0.92040   0.91664   0.22936   Biso      1.000     O          -0.6609189999999999           
         O12       1.0000    0.82747   0.66964   0.18412   Biso      1.000     O          -0.691887           
         O13       1.0000    0.48841   0.83036   0.18412   Biso      1.000     O          -0.6906359999999999           
         O14       1.0000    0.43360   0.41664   0.72936   Biso      1.000     O          -0.660425           
         O15       1.0000    0.25168   0.33080   0.64084   Biso      1.000     O          -0.6197010000000001           
         O16       1.0000    0.99711   0.33036   0.68412   Biso      1.000     O          -0.6932020000000001           
         O17       1.0000    0.33704   0.08336   0.72936   Biso      1.000     O          -0.660764           
         O18       1.0000    0.60748   0.16920   0.64084   Biso      1.000     O          -0.619197           
         O19       1.0000    0.81877   0.16964   0.68412   Biso      1.000     O          -0.692645           
         O20       1.0000    0.51159   0.16964   0.81588   Biso      1.000     O          -0.6913159999999999           
         O21       1.0000    0.72332   0.16920   0.85916   Biso      1.000     O          -0.619179           
         O22       1.0000    0.07960   0.08336   0.77064   Biso      1.000     O          -0.66059  
         O23       1.0000    0.17253   0.33036   0.81588   Biso      1.000     O          -0.691852           
         O24       1.0000    0.27668   0.83080   0.14084   Biso      1.000     O          -0.618772           
         Sc1       1.0000    0.86428   0.25000   0.77144   Biso      1.000     Sc          1.8643419999999997  
         Sc2       1.0000    0.38572   0.25000   0.72856   Biso      1.000     Sc          1.864279  
         Sc3       1.0000    0.13572   0.75000   0.22856   Biso      1.000     Sc          1.863984  
         Sc4       1.0000    0.61428   0.75000   0.27144   Biso      1.000     Sc          1.863907 