
##########################################################################
#               Crystallographic Information Format file
#               Produced by PyCifRW module
#
#  This is a CIF file.  CIF has been adopted by the International
#  Union of Crystallography as the standard for data archiving and
#  transmission.
#
#  For information on this file format, follow the CIF links at
#  http://www.iucr.org
##########################################################################

data_image0

_cell_length_a                          8.7421
_cell_length_b                          11.2534
_cell_length_c                          17.7222
_cell_angle_alpha                       84.5027
_cell_angle_beta                        75.7212
_cell_angle_gamma                       67.1438
_symmetry_space_group_name_H-M          'P 1'
_symmetry_int_tables_number             1
loop_
  _symmetry_equiv_pos_as_xyz
         'x, y, z' 
loop_
  _atom_site_label
  _atom_site_occupancy
  _atom_site_fract_x
  _atom_site_fract_y
  _atom_site_fract_z
  _atom_site_thermal_displace_type
  _atom_site_B_iso_or_equiv
  _atom_site_type_symbol
  _atom_site_charge
         C1        1.0000    0.18966   0.62068   0.25000   Biso      1.000     C          -0.038634           
         C2        1.0000    0.43748   0.46046   0.44398   Biso      1.000     C          -0.07805  
         C3        1.0000    0.94858   0.81906   0.24958   Biso      1.000     C          -0.092391           
         C4        1.0000    0.39358   0.13988   0.36756   Biso      1.000     C          0.669519  
         C5        1.0000    0.45596   0.06250   0.43858   Biso      1.000     C          -0.04846  
         C6        1.0000    0.32653   0.03112   0.49102   Biso      1.000     C          -0.094613           
         C7        1.0000    0.61854   0.03954   0.44398   Biso      1.000     C          -0.077627           
         C8        1.0000    0.90102   0.36012   0.13244   Biso      1.000     C          0.664832  
         C9        1.0000    0.95704   0.43750   0.06142   Biso      1.000     C          -0.041118           
         C10       1.0000    0.84867   0.46888   0.00898   Biso      1.000     C          -0.092169           
         C11       1.0000    0.10206   0.46046   0.05602   Biso      1.000     C          -0.077711           
         C12       1.0000    0.68245   0.46888   0.49102   Biso      1.000     C          -0.092739           
         C13       1.0000    0.23236   0.81906   0.25042   Biso      1.000     C          -0.093328           
         C14       1.0000    0.48154   0.06250   0.06142   Biso      1.000     C          -0.041574           
         C15       1.0000    0.64235   0.03112   0.00898   Biso      1.000     C          -0.092099           
         C16       1.0000    0.34192   0.03954   0.05602   Biso      1.000     C          -0.077773           
         C17       1.0000    0.73596   0.52808   0.75000   Biso      1.000     C          0.665335  
         C18       1.0000    0.81034   0.37932   0.75000   Biso      1.000     C          -0.03897  
         C19       1.0000    0.01404   0.97192   0.75000   Biso      1.000     C          0.665733  
         C20       1.0000    0.93966   0.12068   0.75000   Biso      1.000     C          -0.039607           
         C21       1.0000    0.26404   0.47192   0.25000   Biso      1.000     C          0.664921  
         C22       1.0000    0.98596   0.02808   0.25000   Biso      1.000     C          0.665278  
         C23       1.0000    0.06034   0.87932   0.25000   Biso      1.000     C          -0.039627           
         C24       1.0000    0.46654   0.13988   0.13244   Biso      1.000     C          0.664968  
         C25       1.0000    0.60546   0.43750   0.43858   Biso      1.000     C          -0.042938           
         C26       1.0000    0.01722   0.68094   0.25042   Biso      1.000     C          -0.095034           
         C27       1.0000    0.30184   0.68094   0.24958   Biso      1.000     C          -0.094352           
         C28       1.0000    0.73886   0.36012   0.36756   Biso      1.000     C          0.66898   
         C29       1.0000    0.26114   0.63988   0.63244   Biso      1.000     C          0.669413  
         C30       1.0000    0.39454   0.56250   0.56142   Biso      1.000     C          -0.048291           
         C31       1.0000    0.31755   0.53112   0.50898   Biso      1.000     C          -0.094192           
         C32       1.0000    0.56252   0.53954   0.55602   Biso      1.000     C          -0.083514           
         C33       1.0000    0.05142   0.18094   0.75042   Biso      1.000     C          -0.092196           
         C34       1.0000    0.60642   0.86012   0.63244   Biso      1.000     C          0.669842  
         C35       1.0000    0.54404   0.93750   0.56142   Biso      1.000     C          -0.049237           
         C36       1.0000    0.67347   0.96888   0.50898   Biso      1.000     C          -0.094539           
         C37       1.0000    0.38146   0.96046   0.55602   Biso      1.000     C          -0.077855           
         C38       1.0000    0.69816   0.31906   0.75042   Biso      1.000     C          -0.094253           
         C39       1.0000    0.09898   0.63988   0.86756   Biso      1.000     C          0.665592  
         C40       1.0000    0.98278   0.31906   0.74958   Biso      1.000     C          -0.094902           
         C41       1.0000    0.35765   0.96888   0.99102   Biso      1.000     C          -0.095479           
         C42       1.0000    0.51846   0.93750   0.93858   Biso      1.000     C          -0.04849  
         C43       1.0000    0.53346   0.86012   0.86756   Biso      1.000     C          0.665723  
         C44       1.0000    0.65808   0.96046   0.94398   Biso      1.000     C          -0.08385  
         C45       1.0000    0.89794   0.53954   0.94398   Biso      1.000     C          -0.083964           
         C46       1.0000    0.15133   0.53112   0.99102   Biso      1.000     C          -0.096558           
         C47       1.0000    0.04296   0.56250   0.93858   Biso      1.000     C          -0.047863           
         C48       1.0000    0.76764   0.18094   0.74958   Biso      1.000     C          -0.092958           
         H1        1.0000    0.60088   0.57709   0.60301   Biso      1.000     H          0.11512   
         H2        1.0000    0.25767   0.93711   0.97820   Biso      1.000     H          0.130288  
         H3        1.0000    0.19134   0.12599   0.75138   Biso      1.000     H          0.122045  
         H4        1.0000    0.80522   0.93711   0.52180   Biso      1.000     H          0.130584  
         H5        1.0000    0.29612   0.92291   0.60301   Biso      1.000     H          0.114767  
         H6        1.0000    0.06871   0.37401   0.74862   Biso      1.000     H          0.123048  
         H7        1.0000    0.26413   0.56289   0.97820   Biso      1.000     H          0.130832  
         H8        1.0000    0.82203   0.57709   0.89699   Biso      1.000     H          0.115407  
         H9        1.0000    0.68267   0.12599   0.74862   Biso      1.000     H          0.122395  
         H10       1.0000    0.78097   0.92291   0.89699   Biso      1.000     H          0.11532   
         H11       1.0000    0.19478   0.06289   0.47820   Biso      1.000     H          0.130761  
         H12       1.0000    0.82437   0.44339   0.48542   Biso      1.000     H          0.131233  
         H13       1.0000    0.39912   0.42291   0.39699   Biso      1.000     H          0.116223  
         H14       1.0000    0.80866   0.87401   0.24862   Biso      1.000     H          0.121996  
         H15       1.0000    0.70388   0.07709   0.39699   Biso      1.000     H          0.115196  
         H16       1.0000    0.31733   0.87401   0.25138   Biso      1.000     H          0.122267  
         H17       1.0000    0.18213   0.42488   0.10153   Biso      1.000     H          0.117396  
         H18       1.0000    0.93129   0.62599   0.25138   Biso      1.000     H          0.12303   
         H19       1.0000    0.73225   0.44339   0.01458   Biso      1.000     H          0.131527  
         H20       1.0000    0.17298   0.56289   0.52180   Biso      1.000     H          0.130091  
         H21       1.0000    0.44272   0.62599   0.24862   Biso      1.000     H          0.122722  
         H22       1.0000    0.55728   0.37401   0.75138   Biso      1.000     H          0.122777  
         H23       1.0000    0.21634   0.07512   0.10153   Biso      1.000     H          0.11736   
         H24       1.0000    0.75318   0.05661   0.01458   Biso      1.000     H          0.131605  
         O1        1.0000    0.77663   0.33106   0.14060   Biso      1.000     O          -0.617682           
         O2        1.0000    0.83835   0.58420   0.72886   Biso      1.000     O          -0.65666  
         O3        1.0000    0.10769   0.66894   0.64060   Biso      1.000     O          -0.618614           
         O4        1.0000    0.31658   0.66966   0.68468   Biso      1.000     O          -0.696596           
         O5        1.0000    0.93279   0.91580   0.72886   Biso      1.000     O          -0.656507           
         O6        1.0000    0.75171   0.83106   0.64060   Biso      1.000     O          -0.61796  
         O7        1.0000    0.49874   0.83034   0.68468   Biso      1.000     O          -0.697565           
         O8        1.0000    0.57745   0.58420   0.77114   Biso      1.000     O          -0.655625           
         O9        1.0000    0.22337   0.66894   0.85940   Biso      1.000     O          -0.617089           
         O10       1.0000    0.42255   0.41580   0.22886   Biso      1.000     O          -0.655377           
         O11       1.0000    0.15141   0.91580   0.77114   Biso      1.000     O          -0.655669           
         O12       1.0000    0.01376   0.66966   0.81532   Biso      1.000     O          -0.695311           
         O13       1.0000    0.67092   0.83034   0.81532   Biso      1.000     O          -0.695926           
         O14       1.0000    0.16165   0.41580   0.27114   Biso      1.000     O          -0.656233           
         O15       1.0000    0.89231   0.33106   0.35940   Biso      1.000     O          -0.619308           
         O16       1.0000    0.68342   0.33034   0.31532   Biso      1.000     O          -0.697369           
         O17       1.0000    0.06721   0.08420   0.27114   Biso      1.000     O          -0.656585           
         O18       1.0000    0.24829   0.16894   0.35940   Biso      1.000     O          -0.617308           
         O19       1.0000    0.50126   0.16966   0.31532   Biso      1.000     O          -0.697317           
         O20       1.0000    0.32908   0.16966   0.18468   Biso      1.000     O          -0.697107           
         O21       1.0000    0.58277   0.16894   0.14060   Biso      1.000     O          -0.61699  
         O22       1.0000    0.84859   0.08420   0.22886   Biso      1.000     O          -0.655201           
         O23       1.0000    0.98624   0.33034   0.18468   Biso      1.000     O          -0.696229           
         O24       1.0000    0.41723   0.83106   0.85940   Biso      1.000     O          -0.61634  
         Sc1       1.0000    0.63569   0.25000   0.22862   Biso      1.000     Sc          1.868856  
         Sc2       1.0000    0.11431   0.25000   0.27138   Biso      1.000     Sc          1.869772  
         Sc3       1.0000    0.36431   0.75000   0.77138   Biso      1.000     Sc          1.867886  
         Sc4       1.0000    0.88569   0.75000   0.72862   Biso      1.000     Sc          1.868886 