
##########################################################################
#               Crystallographic Information Format file
#               Produced by PyCifRW module
#
#  This is a CIF file.  CIF has been adopted by the International
#  Union of Crystallography as the standard for data archiving and
#  transmission.
#
#  For information on this file format, follow the CIF links at
#  http://www.iucr.org
##########################################################################

data_image0

_cell_length_a                          8.7047
_cell_length_b                          11.2366
_cell_length_c                          17.7293
_cell_angle_alpha                       84.5437
_cell_angle_beta                        75.7896
_cell_angle_gamma                       67.211
_symmetry_space_group_name_H-M          'P 1'
_symmetry_int_tables_number             1
loop_
  _symmetry_equiv_pos_as_xyz
         'x, y, z' 
loop_
  _atom_site_label
  _atom_site_occupancy
  _atom_site_fract_x
  _atom_site_fract_y
  _atom_site_fract_z
  _atom_site_thermal_displace_type
  _atom_site_B_iso_or_equiv
  _atom_site_type_symbol
  _atom_site_charge
         C1        1.0000    0.80885   0.38230   0.25000   Biso      1.000     C          -0.041152999999999995         
         C2        1.0000    0.90158   0.54030   0.44494   Biso      1.000     C          -0.078105           
         C3        1.0000    0.76994   0.18238   0.24962   Biso      1.000     C          -0.087    
         C4        1.0000    0.53373   0.85970   0.36704   Biso      1.000     C          0.692739  
         C5        1.0000    0.51665   0.93518   0.43592   Biso      1.000     C          -0.046133           
         C6        1.0000    0.36349   0.96814   0.49148   Biso      1.000     C          -0.08985900000000001          
         C7        1.0000    0.65348   0.95970   0.44494   Biso      1.000     C          -0.07824500000000001          
         C8        1.0000    0.26047   0.64030   0.13296   Biso      1.000     C          0.690873  
         C9        1.0000    0.38775   0.56482   0.06408   Biso      1.000     C          -0.04724  
         C10       1.0000    0.32311   0.53186   0.00852   Biso      1.000     C          -0.090002           
         C11       1.0000    0.55812   0.54030   0.05506   Biso      1.000     C          -0.078983           
         C12       1.0000    0.14503   0.53186   0.49148   Biso      1.000     C          -0.090017           
         C13       1.0000    0.04768   0.18238   0.25038   Biso      1.000     C          -0.085461           
         C14       1.0000    0.54817   0.93518   0.06408   Biso      1.000     C          -0.046805           
         C15       1.0000    0.66837   0.96814   0.00852   Biso      1.000     C          -0.08966299999999999          
         C16       1.0000    0.38682   0.95970   0.05506   Biso      1.000     C          -0.079868           
         C17       1.0000    0.26234   0.47532   0.75000   Biso      1.000     C          0.683085  
         C18       1.0000    0.19115   0.61770   0.75000   Biso      1.000     C          -0.041109           
         C19       1.0000    0.98766   0.02468   0.75000   Biso      1.000     C          0.68293   
         C20       1.0000    0.05885   0.88230   0.75000   Biso      1.000     C          -0.040367           
         C21       1.0000    0.73766   0.52468   0.25000   Biso      1.000     C          0.6830430000000001  
         C22       1.0000    0.01234   0.97532   0.25000   Biso      1.000     C          0.682905  
         C23       1.0000    0.94115   0.11770   0.25000   Biso      1.000     C          -0.040267000000000004         
         C24       1.0000    0.60657   0.85970   0.13296   Biso      1.000     C          0.693351  
         C25       1.0000    0.04743   0.56482   0.43592   Biso      1.000     C          -0.048047           
         C26       1.0000    0.70194   0.31762   0.25038   Biso      1.000     C          -0.083641           
         C27       1.0000    0.98044   0.31762   0.24962   Biso      1.000     C          -0.085625           
         C28       1.0000    0.09923   0.64030   0.36704   Biso      1.000     C          0.692149  
         C29       1.0000    0.90077   0.35970   0.63296   Biso      1.000     C          0.69221   
         C30       1.0000    0.95257   0.43518   0.56408   Biso      1.000     C          -0.048199           
         C31       1.0000    0.85497   0.46814   0.50852   Biso      1.000     C          -0.089999           
         C32       1.0000    0.09842   0.45970   0.55506   Biso      1.000     C          -0.07812000000000001          
         C33       1.0000    0.23006   0.81762   0.75038   Biso      1.000     C          -0.086985           
         C34       1.0000    0.46627   0.14030   0.63296   Biso      1.000     C          0.692915  
         C35       1.0000    0.48335   0.06482   0.56408   Biso      1.000     C          -0.048260000000000004         
         C36       1.0000    0.63651   0.03186   0.50852   Biso      1.000     C          -0.090387           
         C37       1.0000    0.34652   0.04030   0.55506   Biso      1.000     C          -0.080386           
         C38       1.0000    0.01956   0.68238   0.75038   Biso      1.000     C          -0.08557000000000001          
         C39       1.0000    0.73953   0.35970   0.86704   Biso      1.000     C          0.6909270000000001  
         C40       1.0000    0.29806   0.68238   0.74962   Biso      1.000     C          -0.08359  
         C41       1.0000    0.33163   0.03186   0.99148   Biso      1.000     C          -0.089823           
         C42       1.0000    0.45183   0.06482   0.93592   Biso      1.000     C          -0.046939           
         C43       1.0000    0.39343   0.14030   0.86704   Biso      1.000     C          0.693409  
         C44       1.0000    0.61318   0.04030   0.94494   Biso      1.000     C          -0.08012799999999999          
         C45       1.0000    0.44188   0.45970   0.94494   Biso      1.000     C          -0.079274           
         C46       1.0000    0.67689   0.46814   0.99148   Biso      1.000     C          -0.090168           
         C47       1.0000    0.61225   0.43518   0.93592   Biso      1.000     C          -0.047346           
         C48       1.0000    0.95232   0.81762   0.74962   Biso      1.000     C          -0.085501           
         H1        1.0000    0.18143   0.42121   0.59941   Biso      1.000     H          0.108823  
         H2        1.0000    0.19500   0.06365   0.98395   Biso      1.000     H          0.116203  
         H3        1.0000    0.31551   0.87263   0.75130   Biso      1.000     H          0.11508900000000001           
         H4        1.0000    0.74134   0.06365   0.51605   Biso      1.000     H          0.11658900000000001           
         H5        1.0000    0.21916   0.07879   0.59941   Biso      1.000     H          0.109152  
         H6        1.0000    0.43943   0.62737   0.74870   Biso      1.000     H          0.114178  
         H7        1.0000    0.82105   0.43635   0.98395   Biso      1.000     H          0.11657100000000001           
         H8        1.0000    0.39736   0.42121   0.90059   Biso      1.000     H          0.109099  
         H9        1.0000    0.81186   0.87263   0.74870   Biso      1.000     H          0.114916  
         H10       1.0000    0.70205   0.07879   0.90059   Biso      1.000     H          0.10950399999999999           
         H11       1.0000    0.25431   0.93902   0.48698   Biso      1.000     H          0.117022  
         H12       1.0000    0.25739   0.56365   0.48395   Biso      1.000     H          0.11626099999999999           
         H13       1.0000    0.81857   0.57879   0.40059   Biso      1.000     H          0.108904  
         H14       1.0000    0.68449   0.12737   0.24870   Biso      1.000     H          0.11506   
         H15       1.0000    0.78099   0.92134   0.40068   Biso      1.000     H          0.109609  
         H16       1.0000    0.18814   0.12737   0.25130   Biso      1.000     H          0.114936  
         H17       1.0000    0.60301   0.57866   0.09932   Biso      1.000     H          0.10905899999999999           
         H18       1.0000    0.56057   0.37263   0.25130   Biso      1.000     H          0.11415499999999999           
         H19       1.0000    0.17895   0.56365   0.01605   Biso      1.000     H          0.116585  
         H20       1.0000    0.74261   0.43635   0.51605   Biso      1.000     H          0.11620499999999999           
         H21       1.0000    0.06680   0.37263   0.24870   Biso      1.000     H          0.11461700000000001           
         H22       1.0000    0.93320   0.62737   0.75130   Biso      1.000     H          0.11464400000000001           
         H23       1.0000    0.29767   0.92134   0.09932   Biso      1.000     H          0.10943900000000001           
         H24       1.0000    0.80500   0.93635   0.01605   Biso      1.000     H          0.11621400000000001           
         O1        1.0000    0.10861   0.66908   0.14170   Biso      1.000     O          -0.620414           
         O2        1.0000    0.42044   0.41644   0.72908   Biso      1.000     O          -0.664812           
         O3        1.0000    0.77769   0.33092   0.64170   Biso      1.000     O          -0.620927           
         O4        1.0000    0.98653   0.33140   0.68434   Biso      1.000     O          -0.701697           
         O5        1.0000    0.85048   0.08356   0.72908   Biso      1.000     O          -0.6647460000000001           
         O6        1.0000    0.58061   0.16908   0.64170   Biso      1.000     O          -0.6212479999999999           
         O7        1.0000    0.32913   0.16860   0.68434   Biso      1.000     O          -0.701669           
         O8        1.0000    0.16312   0.41644   0.77092   Biso      1.000     O          -0.664659           
         O9        1.0000    0.89139   0.33092   0.85830   Biso      1.000     O          -0.620374           
         O10       1.0000    0.83688   0.58356   0.22908   Biso      1.000     O          -0.664687           
         O11       1.0000    0.06596   0.08356   0.77092   Biso      1.000     O          -0.664841           
         O12       1.0000    0.68207   0.33140   0.81566   Biso      1.000     O          -0.700522           
         O13       1.0000    0.50227   0.16860   0.81566   Biso      1.000     O          -0.7017800000000001           
         O14       1.0000    0.57956   0.58356   0.27092   Biso      1.000     O          -0.664771           
         O15       1.0000    0.22231   0.66908   0.35830   Biso      1.000     O          -0.620693           
         O16       1.0000    0.01347   0.66860   0.31566   Biso      1.000     O          -0.701711           
         O17       1.0000    0.14952   0.91644   0.27092   Biso      1.000     O          -0.66451  
         O18       1.0000    0.41939   0.83092   0.35830   Biso      1.000     O          -0.621394           
         O19       1.0000    0.67087   0.83140   0.31566   Biso      1.000     O          -0.702114           
         O20       1.0000    0.49773   0.83140   0.18434   Biso      1.000     O          -0.701685           
         O21       1.0000    0.74969   0.83092   0.14170   Biso      1.000     O          -0.622193           
         O22       1.0000    0.93404   0.91644   0.22908   Biso      1.000     O          -0.664944           
         O23       1.0000    0.31793   0.66860   0.18434   Biso      1.000     O          -0.70052  
         O24       1.0000    0.25031   0.16908   0.85830   Biso      1.000     O          -0.622166           
         Sc1       1.0000    0.88573   0.75000   0.22854   Biso      1.000     Sc          1.87127   
         Sc2       1.0000    0.36427   0.75000   0.27146   Biso      1.000     Sc          1.8708150000000001  
         Sc3       1.0000    0.11427   0.25000   0.77146   Biso      1.000     Sc          1.871189  
         Sc4       1.0000    0.63573   0.25000   0.72854   Biso      1.000     Sc          1.8706990000000001 