
##########################################################################
#               Crystallographic Information Format file
#               Produced by PyCifRW module
#
#  This is a CIF file.  CIF has been adopted by the International
#  Union of Crystallography as the standard for data archiving and
#  transmission.
#
#  For information on this file format, follow the CIF links at
#  http://www.iucr.org
##########################################################################

data_image0

_cell_length_a                          11.7089
_cell_length_b                          11.7089
_cell_length_c                          14.7332
_cell_angle_alpha                       109.164
_cell_angle_beta                        109.164
_cell_angle_gamma                       98.4153
_symmetry_space_group_name_H-M          'P 1'
_symmetry_int_tables_number             1
loop_
  _symmetry_equiv_pos_as_xyz
         'x, y, z' 
loop_
  _atom_site_label
  _atom_site_occupancy
  _atom_site_fract_x
  _atom_site_fract_y
  _atom_site_fract_z
  _atom_site_thermal_displace_type
  _atom_site_B_iso_or_equiv
  _atom_site_type_symbol
  _atom_site_charge
         Br1       1.0000    0.31354   0.02388   0.88533   Biso      1.000     Br          -0.041281           
         Br2       1.0000    0.53263   0.31205   0.81857   Biso      1.000     Br          -0.031228           
         Br3       1.0000    0.97612   0.68646   0.61467   Biso      1.000     Br          -0.04128  
         Br4       1.0000    0.68795   0.46737   0.68143   Biso      1.000     Br          -0.031228           
         Br5       1.0000    0.68646   0.97612   0.11467   Biso      1.000     Br          -0.041281           
         Br6       1.0000    0.46737   0.68795   0.18143   Biso      1.000     Br          -0.031228           
         Br7       1.0000    0.02388   0.31354   0.38533   Biso      1.000     Br          -0.04128  
         Br8       1.0000    0.31205   0.53263   0.31857   Biso      1.000     Br          -0.031228           
         C1        1.0000    0.84470   0.87270   0.93110   Biso      1.000     C          0.047826  
         C2        1.0000    0.98110   0.38030   0.28130   Biso      1.000     C          0.079146  
         C3        1.0000    0.92580   0.30060   0.17690   Biso      1.000     C          -0.130852           
         C4        1.0000    0.89670   0.35390   0.10490   Biso      1.000     C          -0.033525           
         C5        1.0000    0.92720   0.48420   0.14070   Biso      1.000     C          0.056293  
         C6        1.0000    0.19600   0.34700   0.10820   Biso      1.000     C          -0.125588           
         C7        1.0000    0.25720   0.26720   0.24140   Biso      1.000     C          0.001152  
         C8        1.0000    0.25010   0.36770   0.21320   Biso      1.000     C          0.075041  
         C9        1.0000    0.00800   0.50860   0.31280   Biso      1.000     C          -0.00453  
         C10       1.0000    0.07450   0.18930   0.91890   Biso      1.000     C          0.58615   
         C11       1.0000    0.83720   0.27720   0.98790   Biso      1.000     C          0.57869   
         C12       1.0000    0.63230   0.74990   0.28680   Biso      1.000     C          0.075033  
         C13       1.0000    0.77660   0.85380   0.46540   Biso      1.000     C          -0.034569           
         C14       1.0000    0.65300   0.80400   0.39180   Biso      1.000     C          -0.125584           
         C15       1.0000    0.14620   0.22340   0.03460   Biso      1.000     C          -0.034567           
         C16       1.0000    0.73280   0.74280   0.25860   Biso      1.000     C          0.001158  
         C17       1.0000    0.81070   0.92550   0.58110   Biso      1.000     C          0.58615   
         C18       1.0000    0.51580   0.07280   0.35930   Biso      1.000     C          0.056294  
         C19       1.0000    0.64610   0.10330   0.39510   Biso      1.000     C          -0.033525           
         C20       1.0000    0.69940   0.07420   0.32310   Biso      1.000     C          -0.130855           
         C21       1.0000    0.61970   0.01890   0.21870   Biso      1.000     C          0.07915   
         C22       1.0000    0.87270   0.84470   0.43110   Biso      1.000     C          0.047827  
         C23       1.0000    0.15530   0.12730   0.06890   Biso      1.000     C          0.047829  
         C24       1.0000    0.92550   0.81070   0.08110   Biso      1.000     C          0.58615   
         C25       1.0000    0.80400   0.65300   0.89180   Biso      1.000     C          -0.125588           
         C26       1.0000    0.27720   0.83720   0.48790   Biso      1.000     C          0.57869   
         C27       1.0000    0.50860   0.00800   0.81280   Biso      1.000     C          -0.00454  
         C28       1.0000    0.38030   0.98110   0.78130   Biso      1.000     C          0.079154  
         C29       1.0000    0.30060   0.92580   0.67690   Biso      1.000     C          -0.130853           
         C30       1.0000    0.35390   0.89670   0.60490   Biso      1.000     C          -0.033525           
         C31       1.0000    0.48420   0.92720   0.64070   Biso      1.000     C          0.056293  
         C32       1.0000    0.18930   0.07450   0.41890   Biso      1.000     C          0.58615   
         C33       1.0000    0.26720   0.25720   0.74140   Biso      1.000     C          0.001152  
         C34       1.0000    0.36770   0.25010   0.71320   Biso      1.000     C          0.075038  
         C35       1.0000    0.34700   0.19600   0.60820   Biso      1.000     C          -0.125585           
         C36       1.0000    0.22340   0.14620   0.53460   Biso      1.000     C          -0.034568           
         C37       1.0000    0.12730   0.15530   0.56890   Biso      1.000     C          0.047827  
         C38       1.0000    0.16280   0.72280   0.01210   Biso      1.000     C          0.57869   
         C39       1.0000    0.99200   0.49140   0.68720   Biso      1.000     C          -0.00454  
         C40       1.0000    0.01890   0.61970   0.71870   Biso      1.000     C          0.079154  
         C41       1.0000    0.07420   0.69940   0.82310   Biso      1.000     C          -0.130853           
         C42       1.0000    0.10330   0.64610   0.89510   Biso      1.000     C          -0.033524           
         C43       1.0000    0.07280   0.51580   0.85930   Biso      1.000     C          0.056293  
         C44       1.0000    0.49140   0.99200   0.18720   Biso      1.000     C          -0.004531           
         C45       1.0000    0.74280   0.73280   0.75860   Biso      1.000     C          0.001152  
         C46       1.0000    0.74990   0.63230   0.78680   Biso      1.000     C          0.075041  
         C47       1.0000    0.85380   0.77660   0.96540   Biso      1.000     C          -0.034564           
         C48       1.0000    0.72280   0.16280   0.51210   Biso      1.000     C          0.57869   
         Cd1       1.0000    0.78034   0.02408   0.78750   Biso      1.000     Cd          0.93619   
         Cd2       1.0000    0.02408   0.78034   0.28750   Biso      1.000     Cd          0.93619   
         Cd3       1.0000    0.97592   0.21966   0.71250   Biso      1.000     Cd          0.93619   
         Cd4       1.0000    0.21966   0.97592   0.21250   Biso      1.000     Cd          0.93619   
         H1        1.0000    0.80810   0.25790   0.80670   Biso      1.000     H          0.443906  
         H2        1.0000    0.12090   0.04450   0.01930   Biso      1.000     H          0.103564  
         H3        1.0000    0.19330   0.41410   0.08780   Biso      1.000     H          0.144702  
         H4        1.0000    0.29510   0.28270   0.31210   Biso      1.000     H          0.108536  
         H5        1.0000    0.90900   0.51980   0.09170   Biso      1.000     H          0.104552  
         H6        1.0000    0.90880   0.21360   0.15560   Biso      1.000     H          0.134995  
         H7        1.0000    0.04540   0.56020   0.38410   Biso      1.000     H          0.104685  
         H8        1.0000    0.74210   0.19190   0.69330   Biso      1.000     H          0.443906  
         H9        1.0000    0.95550   0.87910   0.48070   Biso      1.000     H          0.103565  
         H10       1.0000    0.58590   0.80670   0.41220   Biso      1.000     H          0.144702  
         H11       1.0000    0.71730   0.70490   0.18790   Biso      1.000     H          0.108536  
         H12       1.0000    0.48020   0.09100   0.40830   Biso      1.000     H          0.104552  
         H13       1.0000    0.56020   0.04540   0.88410   Biso      1.000     H          0.104686  
         H14       1.0000    0.43980   0.95460   0.11590   Biso      1.000     H          0.104685  
         H15       1.0000    0.21360   0.90880   0.65560   Biso      1.000     H          0.134995  
         H16       1.0000    0.51980   0.90900   0.59170   Biso      1.000     H          0.104552  
         H17       1.0000    0.28270   0.29510   0.81210   Biso      1.000     H          0.108536  
         H18       1.0000    0.41410   0.19330   0.58780   Biso      1.000     H          0.144702  
         H19       1.0000    0.04450   0.12090   0.51930   Biso      1.000     H          0.103565  
         H20       1.0000    0.78640   0.09120   0.34440   Biso      1.000     H          0.134996  
         H21       1.0000    0.25790   0.80810   0.30670   Biso      1.000     H          0.443906  
         H22       1.0000    0.09120   0.78640   0.84440   Biso      1.000     H          0.134995  
         H23       1.0000    0.09100   0.48020   0.90830   Biso      1.000     H          0.104552  
         H24       1.0000    0.70490   0.71730   0.68790   Biso      1.000     H          0.108536  
         H25       1.0000    0.80670   0.58590   0.91220   Biso      1.000     H          0.144702  
         H26       1.0000    0.87910   0.95550   0.98070   Biso      1.000     H          0.103564  
         H27       1.0000    0.19190   0.74210   0.19330   Biso      1.000     H          0.443906  
         H28       1.0000    0.95460   0.43980   0.61590   Biso      1.000     H          0.104686  
         N1        1.0000    0.56100   0.98160   0.74270   Biso      1.000     N          -0.21471  
         N2        1.0000    0.14760   0.21120   0.67010   Biso      1.000     N          -0.191435           
         N3        1.0000    0.78880   0.85240   0.82990   Biso      1.000     N          -0.191434           
         N4        1.0000    0.01840   0.43900   0.75730   Biso      1.000     N          -0.21471  
         N5        1.0000    0.85240   0.78880   0.32990   Biso      1.000     N          -0.191435           
         N6        1.0000    0.98160   0.56100   0.24270   Biso      1.000     N          -0.214711           
         N7        1.0000    0.21120   0.14760   0.17010   Biso      1.000     N          -0.191435           
         N8        1.0000    0.43900   0.01840   0.25730   Biso      1.000     N          -0.214711           
         O1        1.0000    0.15935   0.81145   0.45660   Biso      1.000     O          -0.577545           
         O2        1.0000    0.33850   0.81990   0.43160   Biso      1.000     O          -0.567031           
         O3        1.0000    0.27068   0.09772   0.38460   Biso      1.000     O          -0.547327           
         O4        1.0000    0.08209   0.99771   0.36710   Biso      1.000     O          -0.581541           
         O5        1.0000    0.18855   0.84065   0.04340   Biso      1.000     O          -0.577545           
         O6        1.0000    0.18010   0.66150   0.06840   Biso      1.000     O          -0.567031           
         O7        1.0000    0.90228   0.72932   0.11540   Biso      1.000     O          -0.547328           
         O8        1.0000    0.00229   0.91791   0.13290   Biso      1.000     O          -0.581541           
         O9        1.0000    0.66150   0.18010   0.56840   Biso      1.000     O          -0.567031           
         O10       1.0000    0.72932   0.90228   0.61540   Biso      1.000     O          -0.547327           
         O11       1.0000    0.91791   0.00229   0.63290   Biso      1.000     O          -0.581541           
         O12       1.0000    0.81145   0.15935   0.95660   Biso      1.000     O          -0.577545           
         O13       1.0000    0.81990   0.33850   0.93160   Biso      1.000     O          -0.567031           
         O14       1.0000    0.09772   0.27068   0.88460   Biso      1.000     O          -0.547327           
         O15       1.0000    0.99771   0.08209   0.86710   Biso      1.000     O          -0.581541           
         O16       1.0000    0.80000   0.20000   0.75000   Biso      1.000     O          -0.848542           
         O17       1.0000    0.84065   0.18855   0.54340   Biso      1.000     O          -0.577544           
         O18       1.0000    0.20000   0.80000   0.25000   Biso      1.000     O          -0.848542 