
##########################################################################
#               Crystallographic Information Format file
#               Produced by PyCifRW module
#
#  This is a CIF file.  CIF has been adopted by the International
#  Union of Crystallography as the standard for data archiving and
#  transmission.
#
#  For information on this file format, follow the CIF links at
#  http://www.iucr.org
##########################################################################

data_image0

_cell_length_a                          10.9229
_cell_length_b                          11.5371
_cell_length_c                          13.4516
_cell_angle_alpha                       69.502
_cell_angle_beta                        80.049
_cell_angle_gamma                       62.253
_symmetry_space_group_name_H-M          'P 1'
_symmetry_int_tables_number             1
loop_
  _symmetry_equiv_pos_as_xyz
         'x, y, z' 
loop_
  _atom_site_label
  _atom_site_occupancy
  _atom_site_fract_x
  _atom_site_fract_y
  _atom_site_fract_z
  _atom_site_thermal_displace_type
  _atom_site_B_iso_or_equiv
  _atom_site_type_symbol
  _atom_site_charge
         C1        1.0000    0.83050   0.84540   0.22660   Biso      1.000     C          -0.145241           
         C2        1.0000    0.07910   0.72340   0.28320   Biso      1.000     C          0.696419  
         C3        1.0000    0.58060   0.97240   0.19050   Biso      1.000     C          0.658272  
         C4        1.0000    0.11820   0.31110   0.90400   Biso      1.000     C          -0.096895           
         C5        1.0000    0.49250   0.87440   0.55370   Biso      1.000     C          -0.051303           
         C6        1.0000    0.61550   0.87540   0.50340   Biso      1.000     C          -0.062514           
         C7        1.0000    0.37860   0.00020   0.54780   Biso      1.000     C          -0.136048           
         C8        1.0000    0.35690   0.19810   0.96240   Biso      1.000     C          0.634467  
         C9        1.0000    0.87360   0.45500   0.84950   Biso      1.000     C          0.539166  
         C10       1.0000    0.47480   0.74640   0.61490   Biso      1.000     C          0.6379    
         C11       1.0000    0.74440   0.74550   0.50400   Biso      1.000     C          0.545432  
         C12       1.0000    0.16950   0.15460   0.77340   Biso      1.000     C          -0.145238           
         C13       1.0000    0.25140   0.21380   0.89580   Biso      1.000     C          -0.093198           
         C14       1.0000    0.00990   0.33730   0.84510   Biso      1.000     C          -0.075655           
         C15       1.0000    0.27810   0.13430   0.82840   Biso      1.000     C          -0.040502           
         C16       1.0000    0.03500   0.25740   0.77950   Biso      1.000     C          -0.068874           
         C17       1.0000    0.92090   0.27660   0.71680   Biso      1.000     C          0.696417  
         C18       1.0000    0.41940   0.02760   0.80950   Biso      1.000     C          0.658286  
         C19       1.0000    0.99010   0.66270   0.15490   Biso      1.000     C          -0.07566  
         C20       1.0000    0.74860   0.78620   0.10420   Biso      1.000     C          -0.0932   
         C21       1.0000    0.25560   0.25450   0.49600   Biso      1.000     C          0.545415  
         C22       1.0000    0.52520   0.25360   0.38510   Biso      1.000     C          0.637895  
         C23       1.0000    0.12640   0.54500   0.15050   Biso      1.000     C          0.539173  
         C24       1.0000    0.64310   0.80190   0.03760   Biso      1.000     C          0.634491  
         C25       1.0000    0.62140   0.99980   0.45220   Biso      1.000     C          -0.136045           
         C26       1.0000    0.38450   0.12460   0.49660   Biso      1.000     C          -0.062523           
         C27       1.0000    0.50750   0.12560   0.44630   Biso      1.000     C          -0.051307           
         C28       1.0000    0.88180   0.68890   0.09600   Biso      1.000     C          -0.096894           
         C29       1.0000    0.96500   0.74260   0.22050   Biso      1.000     C          -0.068868           
         C30       1.0000    0.72190   0.86570   0.17160   Biso      1.000     C          -0.040497           
         Ce1       1.0000    0.62209   0.21477   0.77533   Biso      1.000     Ce          1.464757  
         Ce2       1.0000    0.37791   0.78523   0.22467   Biso      1.000     Ce          1.464815  
         H1        1.0000    0.90062   0.63732   0.04807   Biso      1.000     H          0.140823  
         H2        1.0000    0.18669   0.09736   0.73039   Biso      1.000     H          0.137876  
         H3        1.0000    0.29301   0.00075   0.58045   Biso      1.000     H          0.133574  
         H4        1.0000    0.70699   0.99925   0.41955   Biso      1.000     H          0.133571  
         H5        1.0000    0.81331   0.90264   0.26961   Biso      1.000     H          0.137877  
         H6        1.0000    0.09938   0.36268   0.95193   Biso      1.000     H          0.140822  
         O1        1.0000    0.48330   0.94000   0.22600   Biso      1.000     O          -0.647842           
         O2        1.0000    0.14300   0.24960   0.52240   Biso      1.000     O          -0.636605           
         O3        1.0000    0.14290   0.79380   0.23990   Biso      1.000     O          -0.634456           
         O4        1.0000    0.47620   0.17280   0.93270   Biso      1.000     O          -0.641709           
         O5        1.0000    0.26110   0.36830   0.46860   Biso      1.000     O          -0.602358           
         O6        1.0000    0.22600   0.51730   0.20420   Biso      1.000     O          -0.620196           
         O7        1.0000    0.57200   0.09120   0.17290   Biso      1.000     O          -0.613552           
         O8        1.0000    0.68960   0.78330   0.94630   Biso      1.000     O          -0.649148           
         O9        1.0000    0.49350   0.30790   0.28670   Biso      1.000     O          -0.680246           
         O10       1.0000    0.09950   0.64330   0.37740   Biso      1.000     O          -0.623067           
         O11       1.0000    0.14170   0.47190   0.09450   Biso      1.000     O          -0.588786           
         O12       1.0000    0.42380   0.70320   0.57000   Biso      1.000     O          -0.568818           
         O13       1.0000    0.85710   0.20620   0.76010   Biso      1.000     O          -0.634455           
         O14       1.0000    0.51670   0.06000   0.77400   Biso      1.000     O          -0.64783  
         O15       1.0000    0.85700   0.75040   0.47760   Biso      1.000     O          -0.636607           
         O16       1.0000    0.73890   0.63170   0.53140   Biso      1.000     O          -0.602356           
         O17       1.0000    0.77400   0.48270   0.79580   Biso      1.000     O          -0.620177           
         O18       1.0000    0.42800   0.90880   0.82710   Biso      1.000     O          -0.613557           
         O19       1.0000    0.31040   0.21670   0.05370   Biso      1.000     O          -0.649132           
         O20       1.0000    0.50650   0.69210   0.71330   Biso      1.000     O          -0.680276           
         O21       1.0000    0.90050   0.35670   0.62260   Biso      1.000     O          -0.62307  
         O22       1.0000    0.57620   0.29680   0.43000   Biso      1.000     O          -0.568817           
         O23       1.0000    0.85830   0.52810   0.90550   Biso      1.000     O          -0.588818           
         O24       1.0000    0.52380   0.82720   0.06730   Biso      1.000     O          -0.641704           
         U1        1.0000    0.63202   0.70190   0.83325   Biso      1.000     U          1.703846  
         U2        1.0000    0.36798   0.29810   0.16675   Biso      1.000     U          1.703747  
         U3        1.0000    0.00000   0.50000   0.50000   Biso      1.000     U          1.969005 