
##########################################################################
#               Crystallographic Information Format file
#               Produced by PyCifRW module
#
#  This is a CIF file.  CIF has been adopted by the International
#  Union of Crystallography as the standard for data archiving and
#  transmission.
#
#  For information on this file format, follow the CIF links at
#  http://www.iucr.org
##########################################################################

data_image0

_cell_length_a                          10.8981
_cell_length_b                          11.5452
_cell_length_c                          13.4086
_cell_angle_alpha                       69.399
_cell_angle_beta                        79.959
_cell_angle_gamma                       62.242
_symmetry_space_group_name_H-M          'P 1'
_symmetry_int_tables_number             1
loop_
  _symmetry_equiv_pos_as_xyz
         'x, y, z' 
loop_
  _atom_site_label
  _atom_site_occupancy
  _atom_site_fract_x
  _atom_site_fract_y
  _atom_site_fract_z
  _atom_site_thermal_displace_type
  _atom_site_B_iso_or_equiv
  _atom_site_type_symbol
  _atom_site_charge
         C1        1.0000    0.83230   0.84540   0.22540   Biso      1.000     C          -0.14241700000000002          
         C2        1.0000    0.87320   0.45700   0.84790   Biso      1.000     C          0.54724   
         C3        1.0000    0.35490   0.20080   0.96330   Biso      1.000     C          0.6454439999999999  
         C4        1.0000    0.62190   0.99950   0.45090   Biso      1.000     C          -0.132891           
         C5        1.0000    0.38460   0.12460   0.49760   Biso      1.000     C          -0.065437           
         C6        1.0000    0.50880   0.12440   0.44730   Biso      1.000     C          -0.053372           
         C7        1.0000    0.11600   0.31230   0.90490   Biso      1.000     C          -0.09954299999999999          
         C8        1.0000    0.52550   0.25260   0.38590   Biso      1.000     C          0.637841  
         C9        1.0000    0.58090   0.97100   0.18960   Biso      1.000     C          0.660644  
         C10       1.0000    0.96680   0.74200   0.21930   Biso      1.000     C          -0.06479299999999999          
         C11       1.0000    0.72200   0.86430   0.17100   Biso      1.000     C          -0.045681           
         C12       1.0000    0.99150   0.66220   0.15410   Biso      1.000     C          -0.073637           
         C13       1.0000    0.74990   0.78440   0.10390   Biso      1.000     C          -0.089257           
         C14       1.0000    0.64510   0.79920   0.03670   Biso      1.000     C          0.645497  
         C15       1.0000    0.74250   0.74440   0.50330   Biso      1.000     C          0.5408109999999999  
         C16       1.0000    0.08070   0.72260   0.28300   Biso      1.000     C          0.699298  
         C17       1.0000    0.25750   0.25560   0.49670   Biso      1.000     C          0.5407609999999999  
         C18       1.0000    0.16770   0.15460   0.77460   Biso      1.000     C          -0.142407           
         C19       1.0000    0.25010   0.21560   0.89610   Biso      1.000     C          -0.089242           
         C20       1.0000    0.88400   0.68770   0.09510   Biso      1.000     C          -0.099535           
         C21       1.0000    0.49120   0.87560   0.55270   Biso      1.000     C          -0.053364           
         C22       1.0000    0.61540   0.87540   0.50240   Biso      1.000     C          -0.06540599999999999          
         C23       1.0000    0.37810   0.00050   0.54910   Biso      1.000     C          -0.132898           
         C24       1.0000    0.47450   0.74740   0.61410   Biso      1.000     C          0.637843  
         C25       1.0000    0.12680   0.54300   0.15210   Biso      1.000     C          0.54727   
         C26       1.0000    0.41910   0.02900   0.81040   Biso      1.000     C          0.660702  
         C27       1.0000    0.91930   0.27740   0.71700   Biso      1.000     C          0.6992970000000001  
         C28       1.0000    0.03320   0.25800   0.78070   Biso      1.000     C          -0.064813           
         C29       1.0000    0.27800   0.13570   0.82900   Biso      1.000     C          -0.045704           
         C30       1.0000    0.00850   0.33780   0.84590   Biso      1.000     C          -0.073603           
         H1        1.0000    0.29277   0.00102   0.58313   Biso      1.000     H          0.135008  
         H2        1.0000    0.09665   0.36347   0.95335   Biso      1.000     H          0.14463099999999998           
         H3        1.0000    0.70723   0.99898   0.41687   Biso      1.000     H          0.135005  
         H4        1.0000    0.18441   0.09619   0.73261   Biso      1.000     H          0.140415  
         H5        1.0000    0.90335   0.63653   0.04665   Biso      1.000     H          0.144628  
         H6        1.0000    0.81559   0.90381   0.26739   Biso      1.000     H          0.140416  
         Nd1       1.0000    0.62032   0.21632   0.77591   Biso      1.000     Nd          1.418675  
         Nd2       1.0000    0.37968   0.78368   0.22409   Biso      1.000     Nd          1.418655  
         O1        1.0000    0.85660   0.53040   0.90400   Biso      1.000     O          -0.596518           
         O2        1.0000    0.14340   0.46960   0.09600   Biso      1.000     O          -0.596478           
         O3        1.0000    0.48300   0.94020   0.22130   Biso      1.000     O          -0.640027           
         O4        1.0000    0.85650   0.74970   0.47520   Biso      1.000     O          -0.6449189999999999           
         O5        1.0000    0.14630   0.79150   0.23880   Biso      1.000     O          -0.641984           
         O6        1.0000    0.73500   0.63220   0.52970   Biso      1.000     O          -0.590588           
         O7        1.0000    0.22620   0.51360   0.20630   Biso      1.000     O          -0.620015           
         O8        1.0000    0.57280   0.09020   0.17230   Biso      1.000     O          -0.619444           
         O9        1.0000    0.68930   0.78500   0.94550   Biso      1.000     O          -0.630992           
         O10       1.0000    0.50530   0.69300   0.71250   Biso      1.000     O          -0.677004           
         O11       1.0000    0.09950   0.64320   0.37750   Biso      1.000     O          -0.621691           
         O12       1.0000    0.57700   0.29720   0.42960   Biso      1.000     O          -0.574579           
         O13       1.0000    0.47480   0.17910   0.93180   Biso      1.000     O          -0.6552319999999999           
         O14       1.0000    0.42300   0.70280   0.57040   Biso      1.000     O          -0.574587           
         O15       1.0000    0.51700   0.05980   0.77870   Biso      1.000     O          -0.639983           
         O16       1.0000    0.14350   0.25030   0.52480   Biso      1.000     O          -0.6449189999999999           
         O17       1.0000    0.85370   0.20850   0.76120   Biso      1.000     O          -0.641971           
         O18       1.0000    0.26500   0.36780   0.47030   Biso      1.000     O          -0.590596           
         O19       1.0000    0.77380   0.48640   0.79370   Biso      1.000     O          -0.619976           
         O20       1.0000    0.42720   0.90980   0.82770   Biso      1.000     O          -0.619433           
         O21       1.0000    0.31070   0.21500   0.05450   Biso      1.000     O          -0.630954           
         O22       1.0000    0.49470   0.30700   0.28750   Biso      1.000     O          -0.676944           
         O23       1.0000    0.90050   0.35680   0.62250   Biso      1.000     O          -0.621691           
         O24       1.0000    0.52520   0.82090   0.06820   Biso      1.000     O          -0.6551779999999999           
         U1        1.0000    0.36923   0.29599   0.16749   Biso      1.000     U          1.713096  
         U2        1.0000    0.63077   0.70401   0.83251   Biso      1.000     U          1.713139  
         U3        1.0000    0.00000   0.50000   0.50000   Biso      1.000     U          1.993386 