
##########################################################################
#               Crystallographic Information Format file
#               Produced by PyCifRW module
#
#  This is a CIF file.  CIF has been adopted by the International
#  Union of Crystallography as the standard for data archiving and
#  transmission.
#
#  For information on this file format, follow the CIF links at
#  http://www.iucr.org
##########################################################################

data_image0

_cell_length_a                          8.3203
_cell_length_b                          15.8367
_cell_length_c                          21.5047
_cell_angle_alpha                       90
_cell_angle_beta                        90
_cell_angle_gamma                       90
_symmetry_space_group_name_H-M          'P 1'
_symmetry_int_tables_number             1
loop_
  _symmetry_equiv_pos_as_xyz
         'x, y, z' 
loop_
  _atom_site_label
  _atom_site_occupancy
  _atom_site_fract_x
  _atom_site_fract_y
  _atom_site_fract_z
  _atom_site_thermal_displace_type
  _atom_site_B_iso_or_equiv
  _atom_site_type_symbol
  _atom_site_charge
         C1        1.0000    0.60030   0.54030   0.43510   Biso      1.000     C          -0.063599           
         C2        1.0000    0.98550   0.08400   0.47930   Biso      1.000     C          -0.10769200000000001          
         C3        1.0000    0.98840   0.17820   0.48120   Biso      1.000     C          0.49399899999999997           
         C4        1.0000    0.80990   0.08750   0.38290   Biso      1.000     C          0.628418  
         C5        1.0000    0.80130   0.90740   0.38370   Biso      1.000     C          0.706607  
         C6        1.0000    0.16590   0.90460   0.57520   Biso      1.000     C          0.640441  
         C7        1.0000    0.89970   0.04030   0.43510   Biso      1.000     C          -0.06405599999999999          
         C8        1.0000    0.07610   0.03810   0.52400   Biso      1.000     C          -0.071015           
         C9        1.0000    0.89260   0.95220   0.43470   Biso      1.000     C          -0.09953300000000001          
         C10       1.0000    0.07160   0.95060   0.52530   Biso      1.000     C          -0.047043           
         C11       1.0000    0.97850   0.90720   0.48060   Biso      1.000     C          -0.10093099999999999          
         C12       1.0000    0.17570   0.08410   0.57290   Biso      1.000     C          0.716992  
         C13       1.0000    0.47850   0.59280   0.98060   Biso      1.000     C          -0.101413           
         C14       1.0000    0.48550   0.41600   0.97930   Biso      1.000     C          -0.107798           
         C15       1.0000    0.48840   0.32180   0.98120   Biso      1.000     C          0.495439  
         C16       1.0000    0.30990   0.41250   0.88290   Biso      1.000     C          0.628771  
         C17       1.0000    0.30130   0.59260   0.88370   Biso      1.000     C          0.706413  
         C18       1.0000    0.66590   0.59540   0.07520   Biso      1.000     C          0.640636  
         C19       1.0000    0.39970   0.45970   0.93510   Biso      1.000     C          -0.063523           
         C20       1.0000    0.57610   0.46190   0.02400   Biso      1.000     C          -0.071164           
         C21       1.0000    0.39260   0.54780   0.93470   Biso      1.000     C          -0.09890800000000001          
         C22       1.0000    0.48220   0.68690   0.97810   Biso      1.000     C          0.48303999999999997           
         C23       1.0000    0.98220   0.81310   0.47810   Biso      1.000     C          0.482306  
         C24       1.0000    0.82430   0.91590   0.07290   Biso      1.000     C          0.716036  
         C25       1.0000    0.92840   0.04940   0.02530   Biso      1.000     C          -0.048331           
         C26       1.0000    0.32430   0.58410   0.57290   Biso      1.000     C          0.716218  
         C27       1.0000    0.42840   0.45060   0.52530   Biso      1.000     C          -0.047127999999999996         
         C28       1.0000    0.60740   0.45220   0.43470   Biso      1.000     C          -0.099742           
         C29       1.0000    0.42390   0.53810   0.52400   Biso      1.000     C          -0.070075           
         C30       1.0000    0.33410   0.40460   0.57520   Biso      1.000     C          0.640256  
         C31       1.0000    0.69870   0.40740   0.38370   Biso      1.000     C          0.707417  
         C32       1.0000    0.69010   0.58750   0.38290   Biso      1.000     C          0.628233  
         C33       1.0000    0.51160   0.67820   0.48120   Biso      1.000     C          0.49276499999999995           
         C34       1.0000    0.51450   0.58400   0.47930   Biso      1.000     C          -0.10651600000000001          
         C35       1.0000    0.52150   0.40720   0.48060   Biso      1.000     C          -0.10077  
         C36       1.0000    0.51780   0.31310   0.47810   Biso      1.000     C          0.482439  
         C37       1.0000    0.01780   0.18690   0.97810   Biso      1.000     C          0.48452700000000004           
         C38       1.0000    0.02150   0.09280   0.98060   Biso      1.000     C          -0.101064           
         C39       1.0000    0.01450   0.91600   0.97930   Biso      1.000     C          -0.10693699999999999          
         C40       1.0000    0.01160   0.82180   0.98120   Biso      1.000     C          0.49645600000000006           
         C41       1.0000    0.19010   0.91250   0.88290   Biso      1.000     C          0.628448  
         C42       1.0000    0.19870   0.09260   0.88370   Biso      1.000     C          0.705823  
         C43       1.0000    0.83410   0.09540   0.07520   Biso      1.000     C          0.640385  
         C44       1.0000    0.10030   0.95970   0.93510   Biso      1.000     C          -0.06324500000000001          
         C45       1.0000    0.92390   0.96190   0.02400   Biso      1.000     C          -0.070874           
         C46       1.0000    0.10740   0.04780   0.93470   Biso      1.000     C          -0.098038           
         C47       1.0000    0.57160   0.54940   0.02530   Biso      1.000     C          -0.048402999999999995         
         C48       1.0000    0.67570   0.41590   0.07290   Biso      1.000     C          0.7162029999999999  
         Nd1       1.0000    0.14548   0.15650   0.72772   Biso      1.000     Nd          1.30328   
         Nd2       1.0000    0.64548   0.34350   0.22772   Biso      1.000     Nd          1.3090899999999999  
         Nd3       1.0000    0.85452   0.84350   0.22772   Biso      1.000     Nd          1.306901  
         Nd4       1.0000    0.35452   0.65650   0.72772   Biso      1.000     Nd          1.306289  
         O1        1.0000    0.81540   0.39270   0.05830   Biso      1.000     O          -0.650127           
         O2        1.0000    0.61600   0.40750   0.12500   Biso      1.000     O          -0.5945630000000001           
         O3        1.0000    0.36700   0.59370   0.83200   Biso      1.000     O          -0.581734           
         O4        1.0000    0.15820   0.61760   0.89360   Biso      1.000     O          -0.617974           
         O5        1.0000    0.57640   0.00510   0.95270   Biso      1.000     O          -1.0815540000000001           
         O6        1.0000    0.11600   0.09250   0.62500   Biso      1.000     O          -0.592879           
         O7        1.0000    0.16540   0.39560   0.88900   Biso      1.000     O          -0.6376729999999999           
         O8        1.0000    0.56050   0.28340   0.02420   Biso      1.000     O          -0.6248020000000001           
         O9        1.0000    0.42240   0.72610   0.93340   Biso      1.000     O          -0.6047239999999999           
         O10       1.0000    0.54250   0.72800   0.02380   Biso      1.000     O          -0.620077           
         O11       1.0000    0.91670   0.21850   0.43910   Biso      1.000     O          -0.580762           
         O12       1.0000    0.09990   0.89160   0.62580   Biso      1.000     O          -0.530091           
         O13       1.0000    0.38850   0.40040   0.83410   Biso      1.000     O          -0.552193           
         O14       1.0000    0.81070   0.61640   0.06220   Biso      1.000     O          -0.675291           
         O15       1.0000    0.41670   0.28150   0.93910   Biso      1.000     O          -0.584717           
         O16       1.0000    0.31070   0.88360   0.56220   Biso      1.000     O          -0.6701229999999999           
         O17       1.0000    0.45750   0.27200   0.52380   Biso      1.000     O          -0.6171439999999999           
         O18       1.0000    0.57760   0.27390   0.43340   Biso      1.000     O          -0.602563           
         O19       1.0000    0.43950   0.71660   0.52420   Biso      1.000     O          -0.620963           
         O20       1.0000    0.83460   0.60440   0.38900   Biso      1.000     O          -0.6318159999999999           
         O21       1.0000    0.61150   0.59960   0.33410   Biso      1.000     O          -0.5523520000000001           
         O22       1.0000    0.84180   0.38240   0.39360   Biso      1.000     O          -0.611992           
         O23       1.0000    0.63300   0.40630   0.33200   Biso      1.000     O          -0.580773           
         O24       1.0000    0.38400   0.59250   0.62500   Biso      1.000     O          -0.593942           
         O25       1.0000    0.18460   0.60730   0.55830   Biso      1.000     O          -0.643547           
         O26       1.0000    0.42360   0.99490   0.45270   Biso      1.000     O          -1.070287           
         O27       1.0000    0.18930   0.38360   0.56220   Biso      1.000     O          -0.6693560000000001           
         O28       1.0000    0.59990   0.60840   0.12580   Biso      1.000     O          -0.529647           
         O29       1.0000    0.07640   0.49490   0.45270   Biso      1.000     O          -1.0674549999999998           
         O30       1.0000    0.58330   0.71850   0.43910   Biso      1.000     O          -0.5809529999999999           
         O31       1.0000    0.13300   0.09370   0.83200   Biso      1.000     O          -0.581277           
         O32       1.0000    0.40010   0.39160   0.62580   Biso      1.000     O          -0.529732           
         O33       1.0000    0.95750   0.22800   0.02380   Biso      1.000     O          -0.6195109999999999           
         O34       1.0000    0.07760   0.22610   0.93340   Biso      1.000     O          -0.6041300000000001           
         O35       1.0000    0.93950   0.78340   0.02420   Biso      1.000     O          -0.62412  
         O36       1.0000    0.33460   0.89560   0.88900   Biso      1.000     O          -0.637369           
         O37       1.0000    0.11150   0.90040   0.83410   Biso      1.000     O          -0.551983           
         O38       1.0000    0.34180   0.11760   0.89360   Biso      1.000     O          -0.617525           
         O39       1.0000    0.31540   0.10730   0.55830   Biso      1.000     O          -0.645042           
         O40       1.0000    0.88400   0.90750   0.12500   Biso      1.000     O          -0.593982           
         O41       1.0000    0.92360   0.50510   0.95270   Biso      1.000     O          -1.081151           
         O42       1.0000    0.68460   0.89270   0.05830   Biso      1.000     O          -0.650099           
         O43       1.0000    0.90010   0.10840   0.12580   Biso      1.000     O          -0.5296109999999999           
         O44       1.0000    0.08330   0.78150   0.93910   Biso      1.000     O          -0.5841689999999999           
         O45       1.0000    0.04250   0.77200   0.52380   Biso      1.000     O          -0.6168899999999999           
         O46       1.0000    0.92240   0.77390   0.43340   Biso      1.000     O          -0.601208           
         O47       1.0000    0.06050   0.21660   0.52420   Biso      1.000     O          -0.620637           
         O48       1.0000    0.66540   0.10440   0.38900   Biso      1.000     O          -0.633632           
         O49       1.0000    0.88850   0.09960   0.33410   Biso      1.000     O          -0.5519970000000001           
         O50       1.0000    0.65820   0.88240   0.39360   Biso      1.000     O          -0.612863           
         O51       1.0000    0.86700   0.90630   0.33200   Biso      1.000     O          -0.5813010000000001           
         O52       1.0000    0.68930   0.11640   0.06220   Biso      1.000     O          -0.6751659999999999           
         U1        1.0000    0.52296   0.14419   0.97608   Biso      1.000     U          1.9115520000000001  
         U2        1.0000    0.51593   0.86625   0.97188   Biso      1.000     U          1.958331  
         U3        1.0000    0.01593   0.63375   0.47188   Biso      1.000     U          1.923459  
         U4        1.0000    0.48407   0.13375   0.47188   Biso      1.000     U          1.9367729999999999  
         U5        1.0000    0.98407   0.36625   0.97188   Biso      1.000     U          1.958853  
         U6        1.0000    0.97704   0.64419   0.97608   Biso      1.000     U          1.912218  
         U7        1.0000    0.02296   0.35581   0.47608   Biso      1.000     U          1.881919  
         U8        1.0000    0.47704   0.85581   0.47608   Biso      1.000     U          1.8863330000000003 