
##########################################################################
#               Crystallographic Information Format file
#               Produced by PyCifRW module
#
#  This is a CIF file.  CIF has been adopted by the International
#  Union of Crystallography as the standard for data archiving and
#  transmission.
#
#  For information on this file format, follow the CIF links at
#  http://www.iucr.org
##########################################################################

data_image0

_cell_length_a                          8.3188
_cell_length_b                          15.8523
_cell_length_c                          21.5884
_cell_angle_alpha                       90
_cell_angle_beta                        90
_cell_angle_gamma                       90
_symmetry_space_group_name_H-M          'P 1'
_symmetry_int_tables_number             1
loop_
  _symmetry_equiv_pos_as_xyz
         'x, y, z' 
loop_
  _atom_site_label
  _atom_site_occupancy
  _atom_site_fract_x
  _atom_site_fract_y
  _atom_site_fract_z
  _atom_site_thermal_displace_type
  _atom_site_B_iso_or_equiv
  _atom_site_type_symbol
  _atom_site_charge
         C1        1.0000    0.60100   0.54030   0.43520   Biso      1.000     C          -0.06364199999999999          
         C2        1.0000    0.98540   0.08360   0.47900   Biso      1.000     C          -0.102013           
         C3        1.0000    0.98980   0.17850   0.48170   Biso      1.000     C          0.48944499999999996           
         C4        1.0000    0.81100   0.08700   0.38390   Biso      1.000     C          0.6266579999999999  
         C5        1.0000    0.80040   0.90900   0.38480   Biso      1.000     C          0.695535  
         C6        1.0000    0.16520   0.90470   0.57530   Biso      1.000     C          0.646705  
         C7        1.0000    0.89900   0.04030   0.43520   Biso      1.000     C          -0.06364  
         C8        1.0000    0.07660   0.03930   0.52440   Biso      1.000     C          -0.07109299999999999          
         C9        1.0000    0.89320   0.95310   0.43580   Biso      1.000     C          -0.097929           
         C10       1.0000    0.07050   0.95040   0.52450   Biso      1.000     C          -0.043708           
         C11       1.0000    0.98000   0.90770   0.48170   Biso      1.000     C          -0.09814099999999999          
         C12       1.0000    0.17560   0.08430   0.57260   Biso      1.000     C          0.710742  
         C13       1.0000    0.48000   0.59230   0.98170   Biso      1.000     C          -0.097459           
         C14       1.0000    0.48540   0.41640   0.97900   Biso      1.000     C          -0.097616           
         C15       1.0000    0.48980   0.32150   0.98170   Biso      1.000     C          0.49168500000000004           
         C16       1.0000    0.31100   0.41300   0.88390   Biso      1.000     C          0.625337  
         C17       1.0000    0.30040   0.59100   0.88480   Biso      1.000     C          0.6946979999999999  
         C18       1.0000    0.66520   0.59530   0.07530   Biso      1.000     C          0.6449819999999999  
         C19       1.0000    0.39900   0.45970   0.93520   Biso      1.000     C          -0.062075           
         C20       1.0000    0.57660   0.46070   0.02440   Biso      1.000     C          -0.069289           
         C21       1.0000    0.39320   0.54690   0.93580   Biso      1.000     C          -0.095834           
         C22       1.0000    0.48210   0.68740   0.97820   Biso      1.000     C          0.500278  
         C23       1.0000    0.98210   0.81260   0.47820   Biso      1.000     C          0.49008999999999997           
         C24       1.0000    0.82440   0.91570   0.07260   Biso      1.000     C          0.712173  
         C25       1.0000    0.92950   0.04960   0.02450   Biso      1.000     C          -0.043259           
         C26       1.0000    0.32440   0.58430   0.57260   Biso      1.000     C          0.7105239999999999  
         C27       1.0000    0.42950   0.45040   0.52450   Biso      1.000     C          -0.04372  
         C28       1.0000    0.60680   0.45310   0.43580   Biso      1.000     C          -0.098341           
         C29       1.0000    0.42340   0.53930   0.52440   Biso      1.000     C          -0.071012           
         C30       1.0000    0.33480   0.40470   0.57530   Biso      1.000     C          0.646645  
         C31       1.0000    0.69960   0.40900   0.38480   Biso      1.000     C          0.6962430000000001  
         C32       1.0000    0.68900   0.58700   0.38390   Biso      1.000     C          0.626713  
         C33       1.0000    0.51020   0.67850   0.48170   Biso      1.000     C          0.48898500000000006           
         C34       1.0000    0.51460   0.58360   0.47900   Biso      1.000     C          -0.102158           
         C35       1.0000    0.52000   0.40770   0.48170   Biso      1.000     C          -0.098442           
         C36       1.0000    0.51790   0.31260   0.47820   Biso      1.000     C          0.490073  
         C37       1.0000    0.01790   0.18740   0.97820   Biso      1.000     C          0.48954   
         C38       1.0000    0.02000   0.09230   0.98170   Biso      1.000     C          -0.099857           
         C39       1.0000    0.01460   0.91640   0.97900   Biso      1.000     C          -0.103121           
         C40       1.0000    0.01020   0.82150   0.98170   Biso      1.000     C          0.484947  
         C41       1.0000    0.18900   0.91300   0.88390   Biso      1.000     C          0.628165  
         C42       1.0000    0.19960   0.09100   0.88480   Biso      1.000     C          0.694623  
         C43       1.0000    0.83480   0.09530   0.07530   Biso      1.000     C          0.646616  
         C44       1.0000    0.10100   0.95970   0.93520   Biso      1.000     C          -0.06532  
         C45       1.0000    0.92340   0.96070   0.02440   Biso      1.000     C          -0.073008           
         C46       1.0000    0.10680   0.04690   0.93580   Biso      1.000     C          -0.09815800000000001          
         C47       1.0000    0.57050   0.54960   0.02450   Biso      1.000     C          -0.04292  
         C48       1.0000    0.67560   0.41570   0.07260   Biso      1.000     C          0.7082189999999999  
         Ce1       1.0000    0.14518   0.15677   0.72753   Biso      1.000     Ce          1.3605690000000001  
         Ce2       1.0000    0.64518   0.34323   0.22753   Biso      1.000     Ce          1.368228  
         Ce3       1.0000    0.85482   0.84323   0.22753   Biso      1.000     Ce          1.3563889999999998  
         Ce4       1.0000    0.35482   0.65677   0.72753   Biso      1.000     Ce          1.374562  
         O1        1.0000    0.81690   0.39200   0.05810   Biso      1.000     O          -0.634862           
         O2        1.0000    0.61780   0.40800   0.12540   Biso      1.000     O          -0.5994520000000001           
         O3        1.0000    0.36780   0.59310   0.83330   Biso      1.000     O          -0.586422           
         O4        1.0000    0.15770   0.61700   0.89390   Biso      1.000     O          -0.608078           
         O5        1.0000    0.57770   0.00490   0.95270   Biso      1.000     O          -1.057293           
         O6        1.0000    0.11780   0.09200   0.62540   Biso      1.000     O          -0.596923           
         O7        1.0000    0.16600   0.39450   0.89050   Biso      1.000     O          -0.62171  
         O8        1.0000    0.55920   0.28350   0.02410   Biso      1.000     O          -0.606318           
         O9        1.0000    0.42300   0.72530   0.93350   Biso      1.000     O          -0.590055           
         O10       1.0000    0.54500   0.72730   0.02290   Biso      1.000     O          -0.606758           
         O11       1.0000    0.91940   0.21860   0.43860   Biso      1.000     O          -0.588156           
         O12       1.0000    0.10140   0.89180   0.62480   Biso      1.000     O          -0.530358           
         O13       1.0000    0.38840   0.40090   0.83420   Biso      1.000     O          -0.5529970000000001           
         O14       1.0000    0.80930   0.61600   0.06250   Biso      1.000     O          -0.6783680000000001           
         O15       1.0000    0.41940   0.28140   0.93860   Biso      1.000     O          -0.588004           
         O16       1.0000    0.30930   0.88400   0.56250   Biso      1.000     O          -0.675836           
         O17       1.0000    0.45500   0.27270   0.52290   Biso      1.000     O          -0.610714           
         O18       1.0000    0.57700   0.27470   0.43350   Biso      1.000     O          -0.5927279999999999           
         O19       1.0000    0.44080   0.71650   0.52410   Biso      1.000     O          -0.607317           
         O20       1.0000    0.83400   0.60550   0.39050   Biso      1.000     O          -0.623895           
         O21       1.0000    0.61160   0.59910   0.33420   Biso      1.000     O          -0.554078           
         O22       1.0000    0.84230   0.38300   0.39390   Biso      1.000     O          -0.605575           
         O23       1.0000    0.63220   0.40690   0.33330   Biso      1.000     O          -0.58619  
         O24       1.0000    0.38220   0.59200   0.62540   Biso      1.000     O          -0.600305           
         O25       1.0000    0.18310   0.60800   0.55810   Biso      1.000     O          -0.6358060000000001           
         O26       1.0000    0.42230   0.99510   0.45270   Biso      1.000     O          -1.060469           
         O27       1.0000    0.19070   0.38400   0.56250   Biso      1.000     O          -0.6757989999999999           
         O28       1.0000    0.60140   0.60820   0.12480   Biso      1.000     O          -0.52877  
         O29       1.0000    0.07770   0.49510   0.45270   Biso      1.000     O          -1.059884           
         O30       1.0000    0.58060   0.71860   0.43860   Biso      1.000     O          -0.588166           
         O31       1.0000    0.13220   0.09310   0.83330   Biso      1.000     O          -0.587016           
         O32       1.0000    0.39860   0.39180   0.62480   Biso      1.000     O          -0.5303100000000001           
         O33       1.0000    0.95500   0.22730   0.02290   Biso      1.000     O          -0.611917           
         O34       1.0000    0.07700   0.22530   0.93350   Biso      1.000     O          -0.592194           
         O35       1.0000    0.94080   0.78350   0.02410   Biso      1.000     O          -0.611115           
         O36       1.0000    0.33400   0.89450   0.89050   Biso      1.000     O          -0.622229           
         O37       1.0000    0.11160   0.90090   0.83420   Biso      1.000     O          -0.552795           
         O38       1.0000    0.34230   0.11700   0.89390   Biso      1.000     O          -0.61016  
         O39       1.0000    0.31690   0.10800   0.55810   Biso      1.000     O          -0.635927           
         O40       1.0000    0.88220   0.90800   0.12540   Biso      1.000     O          -0.5951029999999999           
         O41       1.0000    0.92230   0.50490   0.95270   Biso      1.000     O          -1.065854           
         O42       1.0000    0.68310   0.89200   0.05810   Biso      1.000     O          -0.632759           
         O43       1.0000    0.89860   0.10820   0.12480   Biso      1.000     O          -0.530808           
         O44       1.0000    0.08060   0.78140   0.93860   Biso      1.000     O          -0.592897           
         O45       1.0000    0.04500   0.77270   0.52290   Biso      1.000     O          -0.610961           
         O46       1.0000    0.92300   0.77470   0.43350   Biso      1.000     O          -0.591789           
         O47       1.0000    0.05920   0.21650   0.52410   Biso      1.000     O          -0.607035           
         O48       1.0000    0.66600   0.10550   0.39050   Biso      1.000     O          -0.6245029999999999           
         O49       1.0000    0.88840   0.09910   0.33420   Biso      1.000     O          -0.553812           
         O50       1.0000    0.65770   0.88300   0.39390   Biso      1.000     O          -0.605554           
         O51       1.0000    0.86780   0.90690   0.33330   Biso      1.000     O          -0.584762           
         O52       1.0000    0.69070   0.11600   0.06250   Biso      1.000     O          -0.679581           
         U1        1.0000    0.52225   0.14397   0.97620   Biso      1.000     U          1.863947  
         U2        1.0000    0.51533   0.86591   0.97183   Biso      1.000     U          1.8570259999999998  
         U3        1.0000    0.01533   0.63409   0.47183   Biso      1.000     U          1.8673919999999997  
         U4        1.0000    0.48467   0.13409   0.47183   Biso      1.000     U          1.8708310000000001  
         U5        1.0000    0.98467   0.36591   0.97183   Biso      1.000     U          1.857707  
         U6        1.0000    0.97775   0.64397   0.97620   Biso      1.000     U          1.868984  
         U7        1.0000    0.02225   0.35603   0.47620   Biso      1.000     U          1.8484610000000001  
         U8        1.0000    0.47775   0.85603   0.47620   Biso      1.000     U          1.8484029999999998 