
##########################################################################
#               Crystallographic Information Format file
#               Produced by PyCifRW module
#
#  This is a CIF file.  CIF has been adopted by the International
#  Union of Crystallography as the standard for data archiving and
#  transmission.
#
#  For information on this file format, follow the CIF links at
#  http://www.iucr.org
##########################################################################

data_image0

_cell_length_a                          15.8085
_cell_length_b                          15.8085
_cell_length_c                          21.0207
_cell_angle_alpha                       85.2861
_cell_angle_beta                        85.2861
_cell_angle_gamma                       60.5712
_symmetry_space_group_name_H-M          'P 1'
_symmetry_int_tables_number             1
loop_
  _symmetry_equiv_pos_as_xyz
         'x, y, z' 
loop_
  _atom_site_label
  _atom_site_occupancy
  _atom_site_fract_x
  _atom_site_fract_y
  _atom_site_fract_z
  _atom_site_thermal_displace_type
  _atom_site_B_iso_or_equiv
  _atom_site_type_symbol
  _atom_site_charge
         C1        1.0000    0.29350   0.16790   0.67880   Biso      1.000     C          -0.198525           
         C2        1.0000    0.18170   0.95430   0.75780   Biso      1.000     C          0.623072  
         C3        1.0000    0.42310   0.92390   0.80050   Biso      1.000     C          -0.204919           
         C4        1.0000    0.64390   0.81110   0.70040   Biso      1.000     C          0.288609  
         C5        1.0000    0.88160   0.61220   0.58300   Biso      1.000     C          0.652791  
         C6        1.0000    0.21490   0.23230   0.64790   Biso      1.000     C          -0.07491  
         C7        1.0000    0.64920   0.72820   0.68890   Biso      1.000     C          -0.242471           
         C8        1.0000    0.35810   0.27630   0.66450   Biso      1.000     C          -0.227384           
         C9        1.0000    0.12680   0.38560   0.57690   Biso      1.000     C          0.656908  
         C10       1.0000    0.82330   0.04270   0.72870   Biso      1.000     C          0.619857  
         C11       1.0000    0.10590   0.53210   0.22840   Biso      1.000     C          0.290692  
         C12       1.0000    0.93550   0.28030   0.24920   Biso      1.000     C          -0.067123           
         C13       1.0000    0.83580   0.71840   0.17820   Biso      1.000     C          -0.218311           
         C14       1.0000    0.06730   0.72110   0.23060   Biso      1.000     C          -0.051676           
         C15       1.0000    0.07420   0.57740   0.28460   Biso      1.000     C          -0.22691  
         C16       1.0000    0.89160   0.43460   0.18940   Biso      1.000     C          -0.239424           
         C17       1.0000    0.33750   0.27870   0.13120   Biso      1.000     C          -0.079716           
         C18       1.0000    0.76230   0.79610   0.14310   Biso      1.000     C          -0.071716           
         C19       1.0000    0.94000   0.32880   0.30170   Biso      1.000     C          -0.081266           
         C20       1.0000    0.66410   0.72830   0.15200   Biso      1.000     C          -0.073034           
         C21       1.0000    0.80200   0.68240   0.62570   Biso      1.000     C          -0.060092           
         C22       1.0000    0.11600   0.58200   0.16970   Biso      1.000     C          -0.238685           
         C23       1.0000    0.36750   0.18650   0.68820   Biso      1.000     C          0.271406  
         C24       1.0000    0.67360   0.05580   0.78730   Biso      1.000     C          -0.071471           
         C25       1.0000    0.38780   0.11840   0.91700   Biso      1.000     C          0.652791  
         C26       1.0000    0.76770   0.78510   0.85210   Biso      1.000     C          -0.074938           
         C27       1.0000    0.27180   0.35080   0.81110   Biso      1.000     C          -0.242513           
         C28       1.0000    0.72370   0.64190   0.83550   Biso      1.000     C          -0.227385           
         C29       1.0000    0.61440   0.87320   0.92310   Biso      1.000     C          0.656908  
         C30       1.0000    0.53210   0.10590   0.72840   Biso      1.000     C          0.290692  
         C31       1.0000    0.28030   0.93550   0.74920   Biso      1.000     C          -0.067124           
         C32       1.0000    0.71840   0.83580   0.67820   Biso      1.000     C          -0.218316           
         C33       1.0000    0.72110   0.06730   0.73060   Biso      1.000     C          -0.051676           
         C34       1.0000    0.57740   0.07420   0.78460   Biso      1.000     C          -0.22691  
         C35       1.0000    0.43460   0.89160   0.68940   Biso      1.000     C          -0.239424           
         C36       1.0000    0.27870   0.33750   0.63120   Biso      1.000     C          -0.079701           
         C37       1.0000    0.79610   0.76230   0.64310   Biso      1.000     C          -0.071677           
         C38       1.0000    0.32880   0.94000   0.80170   Biso      1.000     C          -0.081264           
         C39       1.0000    0.72830   0.66410   0.65200   Biso      1.000     C          -0.07303  
         C40       1.0000    0.58200   0.11600   0.66970   Biso      1.000     C          -0.238685           
         C41       1.0000    0.67670   0.09270   0.67560   Biso      1.000     C          -0.083877           
         C42       1.0000    0.34030   0.90910   0.69090   Biso      1.000     C          -0.063278           
         C43       1.0000    0.20770   0.31770   0.62080   Biso      1.000     C          -0.061274           
         C44       1.0000    0.47770   0.89230   0.74320   Biso      1.000     C          0.29374   
         C45       1.0000    0.18890   0.35610   0.79960   Biso      1.000     C          0.288647  
         C46       1.0000    0.16790   0.29350   0.17880   Biso      1.000     C          -0.198525           
         C47       1.0000    0.90910   0.34030   0.19090   Biso      1.000     C          -0.063278           
         C48       1.0000    0.27170   0.33590   0.34800   Biso      1.000     C          -0.07303  
         C49       1.0000    0.41800   0.88400   0.33030   Biso      1.000     C          -0.23868  
         C50       1.0000    0.70650   0.83210   0.32120   Biso      1.000     C          -0.198525           
         C51       1.0000    0.32330   0.90730   0.32440   Biso      1.000     C          -0.083914           
         C52       1.0000    0.65970   0.09090   0.30910   Biso      1.000     C          -0.063284           
         C53       1.0000    0.79230   0.68230   0.37920   Biso      1.000     C          -0.061303           
         C54       1.0000    0.32640   0.94420   0.21270   Biso      1.000     C          -0.071475           
         C55       1.0000    0.52230   0.10770   0.25680   Biso      1.000     C          0.293734  
         C56       1.0000    0.63250   0.81350   0.31180   Biso      1.000     C          0.271407  
         C57       1.0000    0.19800   0.31760   0.37430   Biso      1.000     C          -0.060092           
         C58       1.0000    0.81830   0.04570   0.24220   Biso      1.000     C          0.623072  
         C59       1.0000    0.57690   0.07610   0.19950   Biso      1.000     C          -0.204919           
         C60       1.0000    0.35610   0.18890   0.29960   Biso      1.000     C          0.288609  
         C61       1.0000    0.11840   0.38780   0.41700   Biso      1.000     C          0.652791  
         C62       1.0000    0.78510   0.76770   0.35210   Biso      1.000     C          -0.074904           
         C63       1.0000    0.35080   0.27180   0.31110   Biso      1.000     C          -0.24247  
         C64       1.0000    0.64190   0.72370   0.33550   Biso      1.000     C          -0.227388           
         C65       1.0000    0.87320   0.61440   0.42310   Biso      1.000     C          0.656911  
         C66       1.0000    0.17670   0.95730   0.27130   Biso      1.000     C          0.619854  
         C67       1.0000    0.67120   0.06000   0.19830   Biso      1.000     C          -0.081264           
         C68       1.0000    0.09270   0.67670   0.17560   Biso      1.000     C          -0.083877           
         C69       1.0000    0.20390   0.23770   0.35690   Biso      1.000     C          -0.071677           
         C70       1.0000    0.56540   0.10840   0.31060   Biso      1.000     C          -0.239414           
         C71       1.0000    0.31770   0.20770   0.12080   Biso      1.000     C          -0.061275           
         C72       1.0000    0.05580   0.67360   0.28730   Biso      1.000     C          -0.071471           
         C73       1.0000    0.89230   0.47770   0.24320   Biso      1.000     C          0.29374   
         C74       1.0000    0.18650   0.36750   0.18820   Biso      1.000     C          0.271405  
         C75       1.0000    0.68240   0.80200   0.12570   Biso      1.000     C          -0.060052           
         C76       1.0000    0.95430   0.18170   0.25780   Biso      1.000     C          0.623072  
         C77       1.0000    0.92390   0.42310   0.30050   Biso      1.000     C          -0.204918           
         C78       1.0000    0.81110   0.64390   0.20040   Biso      1.000     C          0.288609  
         C79       1.0000    0.61220   0.88160   0.08300   Biso      1.000     C          0.652788  
         C80       1.0000    0.23230   0.21490   0.14790   Biso      1.000     C          -0.074907           
         C81       1.0000    0.72820   0.64920   0.18890   Biso      1.000     C          -0.24247  
         C82       1.0000    0.27630   0.35810   0.16450   Biso      1.000     C          -0.227369           
         C83       1.0000    0.38560   0.12680   0.07690   Biso      1.000     C          0.656909  
         C84       1.0000    0.04270   0.82330   0.22870   Biso      1.000     C          0.619857  
         C85       1.0000    0.46790   0.89410   0.27160   Biso      1.000     C          0.290692  
         C86       1.0000    0.71970   0.06450   0.25080   Biso      1.000     C          -0.067123           
         C87       1.0000    0.28160   0.16420   0.32180   Biso      1.000     C          -0.218316           
         C88       1.0000    0.27890   0.93270   0.26940   Biso      1.000     C          -0.051639           
         C89       1.0000    0.42260   0.92580   0.21540   Biso      1.000     C          -0.226909           
         C90       1.0000    0.72130   0.66250   0.36880   Biso      1.000     C          -0.079675           
         C91       1.0000    0.07610   0.57690   0.69950   Biso      1.000     C          -0.204919           
         C92       1.0000    0.95730   0.17670   0.77130   Biso      1.000     C          0.619857  
         C93       1.0000    0.31760   0.19800   0.87430   Biso      1.000     C          -0.060093           
         C94       1.0000    0.04570   0.81830   0.74220   Biso      1.000     C          0.623072  
         C95       1.0000    0.89410   0.46790   0.77160   Biso      1.000     C          0.290692  
         C96       1.0000    0.06450   0.71970   0.75080   Biso      1.000     C          -0.067124           
         C97       1.0000    0.93270   0.27890   0.76940   Biso      1.000     C          -0.051676           
         C98       1.0000    0.92580   0.42260   0.71540   Biso      1.000     C          -0.22691  
         C99       1.0000    0.10840   0.56540   0.81060   Biso      1.000     C          -0.239424           
         C100      1.0000    0.66250   0.72130   0.86880   Biso      1.000     C          -0.079701           
         C101      1.0000    0.23770   0.20390   0.85690   Biso      1.000     C          -0.071676           
         C102      1.0000    0.06000   0.67120   0.69830   Biso      1.000     C          -0.081264           
         C103      1.0000    0.16420   0.28160   0.82180   Biso      1.000     C          -0.21832  
         C104      1.0000    0.88400   0.41800   0.83030   Biso      1.000     C          -0.238684           
         C105      1.0000    0.83210   0.70650   0.82120   Biso      1.000     C          -0.198496           
         C106      1.0000    0.90730   0.32330   0.82440   Biso      1.000     C          -0.083877           
         C107      1.0000    0.09090   0.65970   0.80910   Biso      1.000     C          -0.063278           
         C108      1.0000    0.68230   0.79230   0.87920   Biso      1.000     C          -0.061271           
         C109      1.0000    0.94420   0.32640   0.71270   Biso      1.000     C          -0.071471           
         C110      1.0000    0.10770   0.52230   0.75680   Biso      1.000     C          0.293741  
         C111      1.0000    0.33590   0.27170   0.84800   Biso      1.000     C          -0.073024           
         C112      1.0000    0.81350   0.63250   0.81180   Biso      1.000     C          0.271403  
         H1        1.0000    0.47040   0.87880   0.65060   Biso      1.000     H          0.135725  
         H2        1.0000    0.27320   0.39620   0.61470   Biso      1.000     H          0.114564  
         H3        1.0000    0.84870   0.77210   0.63110   Biso      1.000     H          0.107518  
         H4        1.0000    0.29370   0.95510   0.84070   Biso      1.000     H          0.109738  
         H5        1.0000    0.73260   0.60500   0.64430   Biso      1.000     H          0.102707  
         H6        1.0000    0.55200   0.13680   0.63090   Biso      1.000     H          0.140291  
         H7        1.0000    0.70500   0.03660   0.82560   Biso      1.000     H          0.118773  
         H8        1.0000    0.71240   0.09480   0.63870   Biso      1.000     H          0.113525  
         H9        1.0000    0.31500   0.90380   0.65390   Biso      1.000     H          0.118599  
         H10       1.0000    0.44870   0.93370   0.83570   Biso      1.000     H          0.141765  
         H11       1.0000    0.16410   0.21930   0.64480   Biso      1.000     H          0.115005  
         H12       1.0000    0.54500   0.06480   0.82110   Biso      1.000     H          0.135271  
         H13       1.0000    0.60140   0.71320   0.70490   Biso      1.000     H          0.140267  
         H14       1.0000    0.29820   0.10900   0.69430   Biso      1.000     H          0.125163  
         H15       1.0000    0.71550   0.89410   0.68630   Biso      1.000     H          0.139118  
         H16       1.0000    0.39500   0.26740   0.85570   Biso      1.000     H          0.102707  
         H17       1.0000    0.28680   0.39860   0.79510   Biso      1.000     H          0.14027   
         H18       1.0000    0.78070   0.83590   0.85520   Biso      1.000     H          0.115007  
         H19       1.0000    0.06630   0.55130   0.66430   Biso      1.000     H          0.141765  
         H20       1.0000    0.96340   0.29500   0.67440   Biso      1.000     H          0.118773  
         H21       1.0000    0.09620   0.68500   0.84610   Biso      1.000     H          0.118599  
         H22       1.0000    0.90520   0.28760   0.86130   Biso      1.000     H          0.113525  
         H23       1.0000    0.89100   0.70180   0.80570   Biso      1.000     H          0.125161  
         H24       1.0000    0.86320   0.44800   0.86910   Biso      1.000     H          0.140291  
         H25       1.0000    0.04490   0.70630   0.65930   Biso      1.000     H          0.109738  
         H26       1.0000    0.22790   0.15130   0.86890   Biso      1.000     H          0.107518  
         H27       1.0000    0.60380   0.72680   0.88530   Biso      1.000     H          0.114564  
         H28       1.0000    0.12120   0.52960   0.84940   Biso      1.000     H          0.135726  
         H29       1.0000    0.93520   0.45500   0.67890   Biso      1.000     H          0.135271  
         H30       1.0000    0.10590   0.28450   0.81370   Biso      1.000     H          0.139119  
         H31       1.0000    0.70670   0.59490   0.82850   Biso      1.000     H          0.130404  
         H32       1.0000    0.89410   0.71550   0.18630   Biso      1.000     H          0.139118  
         H33       1.0000    0.40510   0.29330   0.67150   Biso      1.000     H          0.130404  
         H34       1.0000    0.87880   0.47040   0.15060   Biso      1.000     H          0.135725  
         H35       1.0000    0.59490   0.70670   0.32850   Biso      1.000     H          0.130404  
         H36       1.0000    0.39860   0.28680   0.29510   Biso      1.000     H          0.140267  
         H37       1.0000    0.83590   0.78070   0.35520   Biso      1.000     H          0.115005  
         H38       1.0000    0.06480   0.54500   0.32110   Biso      1.000     H          0.135271  
         H39       1.0000    0.29500   0.96340   0.17440   Biso      1.000     H          0.118773  
         H40       1.0000    0.68500   0.09620   0.34610   Biso      1.000     H          0.1186    
         H41       1.0000    0.28760   0.90520   0.36130   Biso      1.000     H          0.113527  
         H42       1.0000    0.70180   0.89100   0.30570   Biso      1.000     H          0.125163  
         H43       1.0000    0.44800   0.86320   0.36910   Biso      1.000     H          0.14029   
         H44       1.0000    0.26740   0.39500   0.35570   Biso      1.000     H          0.102707  
         H45       1.0000    0.70630   0.04490   0.15930   Biso      1.000     H          0.109738  
         H46       1.0000    0.15130   0.22790   0.36890   Biso      1.000     H          0.107518  
         H47       1.0000    0.72680   0.60380   0.38530   Biso      1.000     H          0.114563  
         H48       1.0000    0.52960   0.12120   0.34940   Biso      1.000     H          0.135725  
         H49       1.0000    0.55130   0.06630   0.16430   Biso      1.000     H          0.141765  
         H50       1.0000    0.28450   0.10590   0.31370   Biso      1.000     H          0.139118  
         H51       1.0000    0.45500   0.93520   0.17890   Biso      1.000     H          0.135271  
         H52       1.0000    0.39620   0.27320   0.11470   Biso      1.000     H          0.114565  
         H53       1.0000    0.95510   0.29370   0.34070   Biso      1.000     H          0.109738  
         H54       1.0000    0.60500   0.73260   0.14430   Biso      1.000     H          0.102707  
         H55       1.0000    0.13680   0.55200   0.13090   Biso      1.000     H          0.140291  
         H56       1.0000    0.10900   0.29820   0.19430   Biso      1.000     H          0.125163  
         H57       1.0000    0.77210   0.84870   0.13110   Biso      1.000     H          0.107521  
         H58       1.0000    0.90380   0.31500   0.15390   Biso      1.000     H          0.118599  
         H59       1.0000    0.03660   0.70500   0.32560   Biso      1.000     H          0.118773  
         H60       1.0000    0.93370   0.44870   0.33570   Biso      1.000     H          0.141765  
         H61       1.0000    0.21930   0.16410   0.14480   Biso      1.000     H          0.115005  
         H62       1.0000    0.71320   0.60140   0.20490   Biso      1.000     H          0.140267  
         H63       1.0000    0.09480   0.71240   0.13870   Biso      1.000     H          0.113525  
         H64       1.0000    0.29330   0.40510   0.17150   Biso      1.000     H          0.130403  
         O1        1.0000    0.11750   0.44250   0.22740   Biso      1.000     O          -0.220574           
         O2        1.0000    0.54320   0.88140   0.06950   Biso      1.000     O          -0.546353           
         O3        1.0000    0.36570   0.06930   0.06850   Biso      1.000     O          -0.520027           
         O4        1.0000    0.64250   0.94170   0.06200   Biso      1.000     O          -0.604339           
         O5        1.0000    0.86380   0.02120   0.78640   Biso      1.000     O          -0.668883           
         O6        1.0000    0.86750   0.05110   0.68160   Biso      1.000     O          -0.530068           
         O7        1.0000    0.14280   0.95440   0.70060   Biso      1.000     O          -0.663084           
         O8        1.0000    0.87960   0.56980   0.23830   Biso      1.000     O          -0.22278  
         O9        1.0000    0.46350   0.12970   0.06010   Biso      1.000     O          -0.62574  
         O10       1.0000    0.96890   0.13570   0.30810   Biso      1.000     O          -0.519384           
         O11       1.0000    0.11860   0.45680   0.43050   Biso      1.000     O          -0.546352           
         O12       1.0000    0.05110   0.86750   0.18160   Biso      1.000     O          -0.530068           
         O13       1.0000    0.02120   0.86380   0.28640   Biso      1.000     O          -0.668883           
         O14       1.0000    0.85720   0.04560   0.29940   Biso      1.000     O          -0.663084           
         O15       1.0000    0.86430   0.03110   0.19190   Biso      1.000     O          -0.519384           
         O16       1.0000    0.43020   0.12040   0.26170   Biso      1.000     O          -0.22278  
         O17       1.0000    0.55750   0.88250   0.27260   Biso      1.000     O          -0.220574           
         O18       1.0000    0.93070   0.63430   0.43150   Biso      1.000     O          -0.520027           
         O19       1.0000    0.05830   0.35750   0.43800   Biso      1.000     O          -0.60434  
         O20       1.0000    0.13570   0.96890   0.80810   Biso      1.000     O          -0.519384           
         O21       1.0000    0.87030   0.53650   0.43990   Biso      1.000     O          -0.625741           
         O22       1.0000    0.95440   0.14280   0.20060   Biso      1.000     O          -0.663084           
         O23       1.0000    0.56980   0.87960   0.73830   Biso      1.000     O          -0.22278  
         O24       1.0000    0.13620   0.97880   0.21360   Biso      1.000     O          -0.668884           
         O25       1.0000    0.88140   0.54320   0.56950   Biso      1.000     O          -0.546352           
         O26       1.0000    0.13250   0.94890   0.31840   Biso      1.000     O          -0.530067           
         O27       1.0000    0.53650   0.87030   0.93990   Biso      1.000     O          -0.625741           
         O28       1.0000    0.35750   0.05830   0.93800   Biso      1.000     O          -0.60434  
         O29       1.0000    0.44250   0.11750   0.72740   Biso      1.000     O          -0.220574           
         O30       1.0000    0.45680   0.11860   0.93050   Biso      1.000     O          -0.546353           
         O31       1.0000    0.88250   0.55750   0.77260   Biso      1.000     O          -0.220574           
         O32       1.0000    0.12040   0.43020   0.76170   Biso      1.000     O          -0.222783           
         O33       1.0000    0.63430   0.93070   0.93150   Biso      1.000     O          -0.520026           
         O34       1.0000    0.04560   0.85720   0.79940   Biso      1.000     O          -0.663084           
         O35       1.0000    0.94890   0.13250   0.81840   Biso      1.000     O          -0.530067           
         O36       1.0000    0.97880   0.13620   0.71360   Biso      1.000     O          -0.668883           
         O37       1.0000    0.12970   0.46350   0.56010   Biso      1.000     O          -0.62574  
         O38       1.0000    0.94170   0.64250   0.56200   Biso      1.000     O          -0.60434  
         O39       1.0000    0.06930   0.36570   0.56850   Biso      1.000     O          -0.520027           
         O40       1.0000    0.03110   0.86430   0.69190   Biso      1.000     O          -0.519384           
         Zn1       1.0000    0.00218   0.00850   0.18084   Biso      1.000     Zn          1.051144  
         Zn2       1.0000    0.95773   0.43533   0.50741   Biso      1.000     Zn          1.020586  
         Zn3       1.0000    0.99150   0.99782   0.31916   Biso      1.000     Zn          1.051144  
         Zn4       1.0000    0.56467   0.04227   0.99259   Biso      1.000     Zn          1.020586  
         Zn5       1.0000    0.99782   0.99150   0.81916   Biso      1.000     Zn          1.051144  
         Zn6       1.0000    0.04227   0.56467   0.49259   Biso      1.000     Zn          1.020586  
         Zn7       1.0000    0.00850   0.00218   0.68084   Biso      1.000     Zn          1.051144  
         Zn8       1.0000    0.43533   0.95773   0.00741   Biso      1.000     Zn          1.020586 