
##########################################################################
#               Crystallographic Information Format file
#               Produced by PyCifRW module
#
#  This is a CIF file.  CIF has been adopted by the International
#  Union of Crystallography as the standard for data archiving and
#  transmission.
#
#  For information on this file format, follow the CIF links at
#  http://www.iucr.org
##########################################################################

data_image0

_cell_length_a                          11.868
_cell_length_b                          13.03
_cell_length_c                          7.7113
_cell_angle_alpha                       105.956
_cell_angle_beta                        94.951
_cell_angle_gamma                       91.584
_symmetry_space_group_name_H-M          'P 1'
_symmetry_int_tables_number             1
loop_
  _symmetry_equiv_pos_as_xyz
         'x, y, z' 
loop_
  _atom_site_label
  _atom_site_occupancy
  _atom_site_fract_x
  _atom_site_fract_y
  _atom_site_fract_z
  _atom_site_thermal_displace_type
  _atom_site_B_iso_or_equiv
  _atom_site_type_symbol
  _atom_site_charge
         C1        1.0000    0.52600   0.94790   0.95920   Biso      1.000     C          -0.027395999999999997         
         C2        1.0000    0.73600   0.63830   0.50680   Biso      1.000     C          0.019673  
         C3        1.0000    0.81730   0.59470   0.60940   Biso      1.000     C          -0.005468           
         C4        1.0000    0.54540   0.43720   0.77020   Biso      1.000     C          -0.006834000000000001         
         C5        1.0000    0.58790   0.62340   0.01150   Biso      1.000     C          0.070699  
         C6        1.0000    0.91820   0.91910   0.28850   Biso      1.000     C          0.055041  
         C7        1.0000    0.90640   0.94430   0.63860   Biso      1.000     C          0.052513  
         C8        1.0000    0.09360   0.05570   0.36140   Biso      1.000     C          0.052513  
         C9        1.0000    0.08180   0.08090   0.71150   Biso      1.000     C          0.055041  
         C10       1.0000    0.41210   0.37660   0.98850   Biso      1.000     C          0.070699  
         C11       1.0000    0.45460   0.56280   0.22980   Biso      1.000     C          -0.006834999999999999         
         C12       1.0000    0.18270   0.40530   0.39060   Biso      1.000     C          -0.005468           
         C13       1.0000    0.26400   0.36170   0.49320   Biso      1.000     C          0.019673  
         C14       1.0000    0.47400   0.05210   0.04080   Biso      1.000     C          -0.027395999999999997         
         Cd1       1.0000    0.24562   0.19412   0.11275   Biso      1.000     Cd          0.8299040000000001  
         Cd2       1.0000    0.75438   0.80588   0.88725   Biso      1.000     Cd          0.8299040000000001  
         H1        1.0000    0.09641   0.36291   0.13330   Biso      1.000     H          0.296274  
         H2        1.0000    0.90359   0.63709   0.86670   Biso      1.000     H          0.296274  
         H3        1.0000    0.88048   0.55694   0.51930   Biso      1.000     H          0.06479   
         H4        1.0000    0.77309   0.53365   0.65665   Biso      1.000     H          0.09216   
         H5        1.0000    0.05252   0.29329   0.26347   Biso      1.000     H          0.294759  
         H6        1.0000    0.78234   0.68316   0.43104   Biso      1.000     H          0.07184600000000001           
         H7        1.0000    0.68531   0.57130   0.41097   Biso      1.000     H          0.082999  
         H8        1.0000    0.59444   0.66497   0.62865   Biso      1.000     H          0.308175  
         H9        1.0000    0.63273   0.75822   0.53776   Biso      1.000     H          0.298682  
         H10       1.0000    0.67300   0.98809   0.11191   Biso      1.000     H          0.29677600000000004           
         H11       1.0000    0.67291   0.00673   0.91098   Biso      1.000     H          0.29508   
         H12       1.0000    0.94748   0.70671   0.73653   Biso      1.000     H          0.294759  
         H13       1.0000    0.49733   0.88868   0.02590   Biso      1.000     H          0.08944400000000001           
         H14       1.0000    0.50299   0.07918   0.18623   Biso      1.000     H          0.08509299999999999           
         H15       1.0000    0.50267   0.11132   0.97410   Biso      1.000     H          0.08944400000000001           
         H16       1.0000    0.32709   0.99327   0.08902   Biso      1.000     H          0.29508   
         H17       1.0000    0.32700   0.01191   0.88809   Biso      1.000     H          0.296777  
         H18       1.0000    0.36727   0.24178   0.46224   Biso      1.000     H          0.298681  
         H19       1.0000    0.40556   0.33503   0.37135   Biso      1.000     H          0.308175  
         H20       1.0000    0.31469   0.42870   0.58903   Biso      1.000     H          0.082999  
         H21       1.0000    0.21766   0.31684   0.56896   Biso      1.000     H          0.07184600000000001           
         H22       1.0000    0.22691   0.46635   0.34335   Biso      1.000     H          0.092161  
         H23       1.0000    0.11952   0.44306   0.48070   Biso      1.000     H          0.06479   
         H24       1.0000    0.49701   0.92082   0.81377   Biso      1.000     H          0.085092  
         N1        1.0000    0.14840   0.09020   0.27510   Biso      1.000     N          -0.396766           
         N2        1.0000    0.35030   0.04390   0.02020   Biso      1.000     N          -0.558435           
         N3        1.0000    0.35890   0.30310   0.98790   Biso      1.000     N          -0.423116           
         N4        1.0000    0.42420   0.60070   0.36570   Biso      1.000     N          -0.43384799999999996          
         N5        1.0000    0.12060   0.32620   0.22730   Biso      1.000     N          -0.5819989999999999           
         N6        1.0000    0.33970   0.29210   0.39270   Biso      1.000     N          -0.576986           
         N7        1.0000    0.64970   0.95610   0.97980   Biso      1.000     N          -0.558435           
         N8        1.0000    0.66030   0.70790   0.60730   Biso      1.000     N          -0.576986           
         N9        1.0000    0.87940   0.67380   0.77270   Biso      1.000     N          -0.5819989999999999           
         N10       1.0000    0.57580   0.39930   0.63430   Biso      1.000     N          -0.43384799999999996          
         N11       1.0000    0.64110   0.69690   0.01210   Biso      1.000     N          -0.423116           
         N12       1.0000    0.86760   0.87290   0.15690   Biso      1.000     N          -0.381877           
         N13       1.0000    0.85160   0.90980   0.72490   Biso      1.000     N          -0.396766           
         N14       1.0000    0.13240   0.12710   0.84310   Biso      1.000     N          -0.381877           
         Ni1       1.0000    0.00000   0.00000   0.50000   Biso      1.000     Ni          0.098564  
         Ni2       1.0000    0.50000   0.50000   0.00000   Biso      1.000     Ni          0.079072 