
##########################################################################
#               Crystallographic Information Format file
#               Produced by PyCifRW module
#
#  This is a CIF file.  CIF has been adopted by the International
#  Union of Crystallography as the standard for data archiving and
#  transmission.
#
#  For information on this file format, follow the CIF links at
#  http://www.iucr.org
##########################################################################

data_image0

_cell_length_a                          10.0714
_cell_length_b                          11.1963
_cell_length_c                          18.942
_cell_angle_alpha                       99.9866
_cell_angle_beta                        90
_cell_angle_gamma                       116.729
_symmetry_space_group_name_H-M          'P 1'
_symmetry_int_tables_number             1
loop_
  _symmetry_equiv_pos_as_xyz
         'x, y, z' 
loop_
  _atom_site_label
  _atom_site_occupancy
  _atom_site_fract_x
  _atom_site_fract_y
  _atom_site_fract_z
  _atom_site_thermal_displace_type
  _atom_site_B_iso_or_equiv
  _atom_site_type_symbol
  _atom_site_charge
         C1        1.0000    0.91360   0.89220   0.85490   Biso      1.000     C          0.078576  
         C2        1.0000    0.98860   0.13540   0.95180   Biso      1.000     C          -0.120836           
         C3        1.0000    0.75390   0.41000   0.63520   Biso      1.000     C          0.614129  
         C4        1.0000    0.27480   0.34980   0.80750   Biso      1.000     C          -0.097311           
         C5        1.0000    0.07010   0.81400   0.53630   Biso      1.000     C          0.607015  
         C6        1.0000    0.19580   0.23340   0.75520   Biso      1.000     C          -0.142767           
         C7        1.0000    0.87220   0.06960   0.62310   Biso      1.000     C          -0.162394           
         C8        1.0000    0.78820   0.94780   0.57430   Biso      1.000     C          -0.01037  
         C9        1.0000    0.10010   0.35560   0.69720   Biso      1.000     C          -0.146551           
         C10       1.0000    0.10750   0.23440   0.70030   Biso      1.000     C          0.094859  
         C11       1.0000    0.08440   0.02380   0.61670   Biso      1.000     C          -0.153929           
         C12       1.0000    0.99950   0.90260   0.56820   Biso      1.000     C          -0.014468           
         C13       1.0000    0.02140   0.10780   0.64510   Biso      1.000     C          0.077684  
         C14       1.0000    0.72050   0.08960   0.95160   Biso      1.000     C          0.590512  
         C15       1.0000    0.17790   0.46880   0.75070   Biso      1.000     C          -0.091234           
         C16       1.0000    0.34390   0.59000   0.86480   Biso      1.000     C          0.616296  
         C17       1.0000    0.85320   0.86460   0.54820   Biso      1.000     C          -0.119184           
         C18       1.0000    0.63090   0.91040   0.54840   Biso      1.000     C          0.592758  
         C19       1.0000    0.92500   0.65020   0.69250   Biso      1.000     C          -0.097822           
         C20       1.0000    0.25610   0.18600   0.96370   Biso      1.000     C          0.605912  
         C21       1.0000    0.96240   0.76660   0.74480   Biso      1.000     C          -0.142827           
         C22       1.0000    0.80260   0.93040   0.87690   Biso      1.000     C          -0.163655           
         C23       1.0000    0.84040   0.05220   0.92570   Biso      1.000     C          -0.009001           
         C24       1.0000    0.74450   0.64440   0.80280   Biso      1.000     C          -0.145508           
         C25       1.0000    0.87310   0.76560   0.79970   Biso      1.000     C          0.096347  
         C26       1.0000    0.06060   0.97620   0.88330   Biso      1.000     C          -0.153437           
         C27       1.0000    0.09690   0.09740   0.93180   Biso      1.000     C          -0.013099           
         C28       1.0000    0.26460   0.46780   0.80680   Biso      1.000     C          -0.032031           
         C29       1.0000    0.72520   0.65020   0.19250   Biso      1.000     C          -0.097311           
         C30       1.0000    0.92990   0.18600   0.46370   Biso      1.000     C          0.607015  
         C31       1.0000    0.80420   0.76660   0.24480   Biso      1.000     C          -0.142766           
         C32       1.0000    0.27950   0.91040   0.04840   Biso      1.000     C          0.590512  
         C33       1.0000    0.01140   0.86460   0.04820   Biso      1.000     C          -0.120836           
         C34       1.0000    0.24610   0.59000   0.36480   Biso      1.000     C          0.61413   
         C35       1.0000    0.20320   0.46780   0.30680   Biso      1.000     C          -0.030774           
         C36       1.0000    0.29090   0.46880   0.25070   Biso      1.000     C          -0.091416           
         C37       1.0000    0.08640   0.10780   0.14510   Biso      1.000     C          0.078576  
         C38       1.0000    0.90310   0.90260   0.06820   Biso      1.000     C          -0.013099           
         C39       1.0000    0.93940   0.02380   0.11670   Biso      1.000     C          -0.153437           
         C40       1.0000    0.12690   0.23440   0.20030   Biso      1.000     C          0.096342  
         C41       1.0000    0.25550   0.35560   0.19720   Biso      1.000     C          -0.145504           
         C42       1.0000    0.15960   0.94780   0.07430   Biso      1.000     C          -0.009001           
         C43       1.0000    0.19740   0.06960   0.12310   Biso      1.000     C          -0.163655           
         C44       1.0000    0.03760   0.23340   0.25520   Biso      1.000     C          -0.142825           
         C45       1.0000    0.74390   0.81400   0.03630   Biso      1.000     C          0.605912  
         C46       1.0000    0.07500   0.34980   0.30750   Biso      1.000     C          -0.097815           
         C47       1.0000    0.36910   0.08960   0.45160   Biso      1.000     C          0.592759  
         C48       1.0000    0.14680   0.13540   0.45180   Biso      1.000     C          -0.119189           
         C49       1.0000    0.65610   0.41000   0.13520   Biso      1.000     C          0.616296  
         C50       1.0000    0.73540   0.53220   0.19320   Biso      1.000     C          -0.032033           
         C51       1.0000    0.82210   0.53120   0.24930   Biso      1.000     C          -0.091235           
         C52       1.0000    0.97860   0.89220   0.35490   Biso      1.000     C          0.077684  
         C53       1.0000    0.00050   0.09740   0.43180   Biso      1.000     C          -0.014463           
         C54       1.0000    0.91560   0.97620   0.38330   Biso      1.000     C          -0.153929           
         C55       1.0000    0.89250   0.76560   0.29970   Biso      1.000     C          0.094858  
         C56       1.0000    0.89990   0.64440   0.30280   Biso      1.000     C          -0.146548           
         C57       1.0000    0.21180   0.05220   0.42570   Biso      1.000     C          -0.01037  
         C58       1.0000    0.12780   0.93040   0.37690   Biso      1.000     C          -0.162393           
         C59       1.0000    0.79680   0.53220   0.69320   Biso      1.000     C          -0.030769           
         C60       1.0000    0.70910   0.53120   0.74930   Biso      1.000     C          -0.091413           
         Cd1       1.0000    0.45623   0.81026   0.97412   Biso      1.000     Cd          1.005848  
         Cd2       1.0000    0.00000   0.50000   0.50000   Biso      1.000     Cd          1.132442  
         Cd3       1.0000    0.64597   0.18974   0.52588   Biso      1.000     Cd          1.006967  
         Cd4       1.0000    0.54377   0.18974   0.02588   Biso      1.000     Cd          1.005848  
         Cd5       1.0000    0.35403   0.81026   0.47412   Biso      1.000     Cd          1.006967  
         Cd6       1.0000    0.50000   0.50000   0.00000   Biso      1.000     Cd          1.132366  
         H1        1.0000    0.33570   0.34760   0.84370   Biso      1.000     H          0.093867  
         H2        1.0000    0.20280   0.15400   0.75740   Biso      1.000     H          0.119203  
         H3        1.0000    0.82910   0.12540   0.64110   Biso      1.000     H          0.124343  
         H4        1.0000    0.04380   0.35980   0.65960   Biso      1.000     H          0.113416  
         H5        1.0000    0.18350   0.04860   0.63010   Biso      1.000     H          0.133343  
         H6        1.0000    0.17160   0.54860   0.74890   Biso      1.000     H          0.113035  
         H7        1.0000    0.79690   0.78240   0.51680   Biso      1.000     H          0.131494  
         H8        1.0000    0.98810   0.65240   0.65630   Biso      1.000     H          0.093623  
         H9        1.0000    0.04880   0.84600   0.74260   Biso      1.000     H          0.118265  
         H10       1.0000    0.70370   0.87460   0.85890   Biso      1.000     H          0.12461   
         H11       1.0000    0.68400   0.64020   0.84040   Biso      1.000     H          0.112573  
         H12       1.0000    0.98550   0.78240   0.01680   Biso      1.000     H          0.13201   
         H13       1.0000    0.62300   0.45140   0.75110   Biso      1.000     H          0.112525  
         H14       1.0000    0.13490   0.95140   0.86990   Biso      1.000     H          0.132614  
         H15       1.0000    0.37700   0.54860   0.24890   Biso      1.000     H          0.112525  
         H16       1.0000    0.86510   0.04860   0.13010   Biso      1.000     H          0.132614  
         H17       1.0000    0.29630   0.12540   0.14110   Biso      1.000     H          0.12461   
         H18       1.0000    0.95120   0.15400   0.25740   Biso      1.000     H          0.118265  
         H19       1.0000    0.01190   0.34760   0.34370   Biso      1.000     H          0.093623  
         H20       1.0000    0.20310   0.21760   0.48320   Biso      1.000     H          0.131494  
         H21       1.0000    0.31600   0.35980   0.15960   Biso      1.000     H          0.112573  
         H22       1.0000    0.81650   0.95140   0.36990   Biso      1.000     H          0.133343  
         H23       1.0000    0.95620   0.64020   0.34040   Biso      1.000     H          0.113416  
         H24       1.0000    0.17090   0.87460   0.35890   Biso      1.000     H          0.124343  
         H25       1.0000    0.79720   0.84600   0.24260   Biso      1.000     H          0.119203  
         H26       1.0000    0.66430   0.65240   0.15630   Biso      1.000     H          0.093867  
         H27       1.0000    0.82840   0.45140   0.25110   Biso      1.000     H          0.113035  
         H28       1.0000    0.01450   0.21760   0.98320   Biso      1.000     H          0.13201   
         O1        1.0000    0.65040   0.29940   0.14290   Biso      1.000     O          -0.52136  
         O2        1.0000    0.44250   0.20400   0.49130   Biso      1.000     O          -0.531745           
         O3        1.0000    0.42140   0.00760   0.43320   Biso      1.000     O          -0.583452           
         O4        1.0000    0.01590   0.30620   0.49210   Biso      1.000     O          -0.581594           
         O5        1.0000    0.35100   0.70060   0.35710   Biso      1.000     O          -0.520971           
         O6        1.0000    0.18160   0.58380   0.42050   Biso      1.000     O          -0.642422           
         O7        1.0000    0.23850   0.79600   0.00870   Biso      1.000     O          -0.530971           
         O8        1.0000    0.59780   0.41620   0.07950   Biso      1.000     O          -0.643663           
         O9        1.0000    0.41380   0.99240   0.06680   Biso      1.000     O          -0.581982           
         O10       1.0000    0.78980   0.13060   0.45840   Biso      1.000     O          -0.558309           
         O11       1.0000    0.34080   0.13060   0.95840   Biso      1.000     O          -0.557943           
         O12       1.0000    0.57860   0.99240   0.56680   Biso      1.000     O          -0.583452           
         O13       1.0000    0.58620   0.00760   0.93320   Biso      1.000     O          -0.581982           
         O14       1.0000    0.76150   0.20400   0.99130   Biso      1.000     O          -0.53097  
         O15       1.0000    0.64900   0.29940   0.64290   Biso      1.000     O          -0.520971           
         O16       1.0000    0.81840   0.41620   0.57950   Biso      1.000     O          -0.642421           
         O17       1.0000    0.21020   0.86940   0.54160   Biso      1.000     O          -0.558309           
         O18       1.0000    0.98410   0.69380   0.50790   Biso      1.000     O          -0.581594           
         O19       1.0000    0.55750   0.79600   0.50870   Biso      1.000     O          -0.531745           
         O20       1.0000    0.34960   0.70060   0.85710   Biso      1.000     O          -0.52136  
         O21       1.0000    0.40220   0.58380   0.92050   Biso      1.000     O          -0.643663           
         O22       1.0000    0.70970   0.69380   0.00790   Biso      1.000     O          -0.581214           
         O23       1.0000    0.29030   0.30620   0.99210   Biso      1.000     O          -0.581214           
         O24       1.0000    0.65920   0.86940   0.04160   Biso      1.000     O          -0.557942 