
##########################################################################
#               Crystallographic Information Format file
#               Produced by PyCifRW module
#
#  This is a CIF file.  CIF has been adopted by the International
#  Union of Crystallography as the standard for data archiving and
#  transmission.
#
#  For information on this file format, follow the CIF links at
#  http://www.iucr.org
##########################################################################

data_image0

_cell_length_a                          20.0407
_cell_length_b                          10.0674
_cell_length_c                          18.9273
_cell_angle_alpha                       90
_cell_angle_beta                        101.3
_cell_angle_gamma                       90
_symmetry_space_group_name_H-M          'P 1'
_symmetry_int_tables_number             1
loop_
  _symmetry_equiv_pos_as_xyz
         'x, y, z' 
loop_
  _atom_site_label
  _atom_site_occupancy
  _atom_site_fract_x
  _atom_site_fract_y
  _atom_site_fract_z
  _atom_site_thermal_displace_type
  _atom_site_B_iso_or_equiv
  _atom_site_type_symbol
  _atom_site_charge
         C1        1.0000    0.73356   0.03120   0.30664   Biso      1.000     C          -0.031478           
         C2        1.0000    0.82550   0.60010   0.19210   Biso      1.000     C          -0.100204           
         C3        1.0000    0.82319   0.42290   0.30252   Biso      1.000     C          -0.146262           
         C4        1.0000    0.88290   0.58060   0.24480   Biso      1.000     C          -0.13968  
         C5        1.0000    0.88296   0.49040   0.30038   Biso      1.000     C          0.097735  
         C6        1.0000    0.94594   0.46730   0.35478   Biso      1.000     C          0.078936  
         C7        1.0000    0.96530   0.33840   0.37719   Biso      1.000     C          -0.15777  
         C8        1.0000    0.59310   0.83680   0.96352   Biso      1.000     C          0.603223  
         C9        1.0000    0.54541   0.32350   0.95206   Biso      1.000     C          0.588074  
         C10       1.0000    0.56792   0.08020   0.95189   Biso      1.000     C          -0.120153           
         C11       1.0000    0.98792   0.57210   0.38386   Biso      1.000     C          -0.151382           
         C12       1.0000    0.54874   0.95150   0.93131   Biso      1.000     C          -0.015226           
         C13       1.0000    0.52590   0.18530   0.92580   Biso      1.000     C          -0.009315           
         C14       1.0000    0.02590   0.31470   0.42580   Biso      1.000     C          -0.009316           
         C15       1.0000    0.48792   0.92790   0.88386   Biso      1.000     C          -0.151381           
         C16       1.0000    0.46530   0.16160   0.87719   Biso      1.000     C          -0.15777  
         C17       1.0000    0.44594   0.03270   0.85478   Biso      1.000     C          0.078937  
         C18       1.0000    0.04874   0.54850   0.43131   Biso      1.000     C          -0.015225           
         C19       1.0000    0.38296   0.00960   0.80038   Biso      1.000     C          0.097731  
         C20       1.0000    0.06792   0.41980   0.45189   Biso      1.000     C          -0.120152           
         C21       1.0000    0.04541   0.17650   0.45206   Biso      1.000     C          0.588074  
         C22       1.0000    0.38290   0.91940   0.74480   Biso      1.000     C          -0.139679           
         C23       1.0000    0.32319   0.07710   0.80252   Biso      1.000     C          -0.14626  
         C24       1.0000    0.09310   0.66320   0.46352   Biso      1.000     C          0.603223  
         C25       1.0000    0.32550   0.89990   0.69210   Biso      1.000     C          -0.100202           
         C26       1.0000    0.26566   0.05720   0.74902   Biso      1.000     C          -0.089765           
         C27       1.0000    0.26644   0.96880   0.69336   Biso      1.000     C          -0.031473           
         C28       1.0000    0.20525   0.95160   0.63508   Biso      1.000     C          0.614745  
         C29       1.0000    0.76566   0.44280   0.24902   Biso      1.000     C          -0.089765           
         C30       1.0000    0.79475   0.04840   0.36492   Biso      1.000     C          0.614745  
         C31       1.0000    0.70525   0.45160   0.63508   Biso      1.000     C          0.614745  
         C32       1.0000    0.76644   0.46880   0.69336   Biso      1.000     C          -0.031478           
         C33       1.0000    0.32550   0.10010   0.19210   Biso      1.000     C          -0.100203           
         C34       1.0000    0.20525   0.04840   0.13508   Biso      1.000     C          0.614745  
         C35       1.0000    0.32319   0.92290   0.30252   Biso      1.000     C          -0.146262           
         C36       1.0000    0.38290   0.08060   0.24480   Biso      1.000     C          -0.13968  
         C37       1.0000    0.38296   0.99040   0.30038   Biso      1.000     C          0.097735  
         C38       1.0000    0.44594   0.96730   0.35478   Biso      1.000     C          0.078936  
         C39       1.0000    0.46530   0.83840   0.37719   Biso      1.000     C          -0.15777  
         C40       1.0000    0.48792   0.07210   0.38386   Biso      1.000     C          -0.151382           
         C41       1.0000    0.52590   0.81470   0.42580   Biso      1.000     C          -0.009316           
         C42       1.0000    0.09310   0.33680   0.96352   Biso      1.000     C          0.603223  
         C43       1.0000    0.04541   0.82350   0.95206   Biso      1.000     C          0.588074  
         C44       1.0000    0.06792   0.58020   0.95189   Biso      1.000     C          -0.120153           
         C45       1.0000    0.54874   0.04850   0.43131   Biso      1.000     C          -0.015225           
         C46       1.0000    0.04874   0.45150   0.93131   Biso      1.000     C          -0.015226           
         C47       1.0000    0.02590   0.68530   0.92580   Biso      1.000     C          -0.009315           
         C48       1.0000    0.56792   0.91980   0.45189   Biso      1.000     C          -0.120152           
         C49       1.0000    0.98792   0.42790   0.88386   Biso      1.000     C          -0.151381           
         C50       1.0000    0.96530   0.66160   0.87719   Biso      1.000     C          -0.15777  
         C51       1.0000    0.94594   0.53270   0.85478   Biso      1.000     C          0.078937  
         C52       1.0000    0.54541   0.67650   0.45206   Biso      1.000     C          0.588074  
         C53       1.0000    0.88296   0.50960   0.80038   Biso      1.000     C          0.097731  
         C54       1.0000    0.59310   0.16320   0.46352   Biso      1.000     C          0.603223  
         C55       1.0000    0.88290   0.41940   0.74480   Biso      1.000     C          -0.13968  
         C56       1.0000    0.82319   0.57710   0.80252   Biso      1.000     C          -0.14626  
         C57       1.0000    0.70525   0.54840   0.13508   Biso      1.000     C          0.614745  
         C58       1.0000    0.82550   0.39990   0.69210   Biso      1.000     C          -0.100199           
         C59       1.0000    0.76566   0.55720   0.74902   Biso      1.000     C          -0.089762           
         C60       1.0000    0.76644   0.53120   0.19336   Biso      1.000     C          -0.031473           
         C61       1.0000    0.26644   0.03120   0.19336   Biso      1.000     C          -0.031476           
         C62       1.0000    0.26566   0.94280   0.24902   Biso      1.000     C          -0.089762           
         C63       1.0000    0.67450   0.10010   0.30790   Biso      1.000     C          -0.100201           
         C64       1.0000    0.17450   0.60010   0.30790   Biso      1.000     C          -0.100203           
         C65       1.0000    0.17681   0.42290   0.19748   Biso      1.000     C          -0.146262           
         C66       1.0000    0.40690   0.83680   0.53648   Biso      1.000     C          0.603223  
         C67       1.0000    0.45459   0.32350   0.54794   Biso      1.000     C          0.588074  
         C68       1.0000    0.43208   0.08020   0.54811   Biso      1.000     C          -0.120153           
         C69       1.0000    0.11710   0.58060   0.25520   Biso      1.000     C          -0.13968  
         C70       1.0000    0.45126   0.95150   0.56869   Biso      1.000     C          -0.015226           
         C71       1.0000    0.47410   0.18530   0.57420   Biso      1.000     C          -0.009315           
         C72       1.0000    0.11704   0.49040   0.19962   Biso      1.000     C          0.097735  
         C73       1.0000    0.51208   0.92790   0.61614   Biso      1.000     C          -0.151381           
         C74       1.0000    0.53470   0.16160   0.62281   Biso      1.000     C          -0.15777  
         C75       1.0000    0.55406   0.03270   0.64522   Biso      1.000     C          0.078937  
         C76       1.0000    0.05406   0.46730   0.14522   Biso      1.000     C          0.078936  
         C77       1.0000    0.61704   0.00960   0.69962   Biso      1.000     C          0.097731  
         C78       1.0000    0.03470   0.33840   0.12281   Biso      1.000     C          -0.157769           
         C79       1.0000    0.01208   0.57210   0.11614   Biso      1.000     C          -0.151382           
         C80       1.0000    0.61710   0.91940   0.75520   Biso      1.000     C          -0.139679           
         C81       1.0000    0.67681   0.07710   0.69748   Biso      1.000     C          -0.14626  
         C82       1.0000    0.97410   0.31470   0.07420   Biso      1.000     C          -0.009316           
         C83       1.0000    0.67450   0.89990   0.80790   Biso      1.000     C          -0.100202           
         C84       1.0000    0.73434   0.05720   0.75098   Biso      1.000     C          -0.089765           
         C85       1.0000    0.73356   0.96880   0.80664   Biso      1.000     C          -0.031473           
         C86       1.0000    0.95126   0.54850   0.06869   Biso      1.000     C          -0.015225           
         C87       1.0000    0.79475   0.95160   0.86492   Biso      1.000     C          0.614745  
         C88       1.0000    0.93208   0.41980   0.04811   Biso      1.000     C          -0.120152           
         C89       1.0000    0.95459   0.17650   0.04794   Biso      1.000     C          0.588074  
         C90       1.0000    0.90690   0.66320   0.03648   Biso      1.000     C          0.603223  
         C91       1.0000    0.73434   0.94280   0.25098   Biso      1.000     C          -0.089763           
         C92       1.0000    0.23356   0.53120   0.30664   Biso      1.000     C          -0.031476           
         C93       1.0000    0.23434   0.44280   0.25098   Biso      1.000     C          -0.089762           
         C94       1.0000    0.03470   0.66160   0.62281   Biso      1.000     C          -0.15777  
         C95       1.0000    0.61704   0.99040   0.19962   Biso      1.000     C          0.097731  
         C96       1.0000    0.90690   0.33680   0.53648   Biso      1.000     C          0.603223  
         C97       1.0000    0.95459   0.82350   0.54794   Biso      1.000     C          0.588074  
         C98       1.0000    0.93208   0.58020   0.54811   Biso      1.000     C          -0.120153           
         C99       1.0000    0.55406   0.96730   0.14522   Biso      1.000     C          0.078937  
         C100      1.0000    0.95126   0.45150   0.56869   Biso      1.000     C          -0.015226           
         C101      1.0000    0.97410   0.68530   0.57420   Biso      1.000     C          -0.009315           
         C102      1.0000    0.53470   0.83840   0.12281   Biso      1.000     C          -0.15777  
         C103      1.0000    0.01208   0.42790   0.61614   Biso      1.000     C          -0.151381           
         C104      1.0000    0.29475   0.54840   0.36492   Biso      1.000     C          0.614745  
         C105      1.0000    0.05406   0.53270   0.64522   Biso      1.000     C          0.078937  
         C106      1.0000    0.61710   0.08060   0.25520   Biso      1.000     C          -0.139678           
         C107      1.0000    0.51208   0.07210   0.11614   Biso      1.000     C          -0.151382           
         C108      1.0000    0.47410   0.81470   0.07420   Biso      1.000     C          -0.009316           
         C109      1.0000    0.45126   0.04850   0.06869   Biso      1.000     C          -0.015225           
         C110      1.0000    0.11710   0.41940   0.75520   Biso      1.000     C          -0.139682           
         C111      1.0000    0.17681   0.57710   0.69748   Biso      1.000     C          -0.146262           
         C112      1.0000    0.43208   0.91980   0.04811   Biso      1.000     C          -0.120152           
         C113      1.0000    0.17450   0.39990   0.80790   Biso      1.000     C          -0.100202           
         C114      1.0000    0.23434   0.55720   0.75098   Biso      1.000     C          -0.089765           
         C115      1.0000    0.23356   0.46880   0.80664   Biso      1.000     C          -0.031473           
         C116      1.0000    0.45459   0.67650   0.04794   Biso      1.000     C          0.588074  
         C117      1.0000    0.29475   0.45160   0.86492   Biso      1.000     C          0.614745  
         C118      1.0000    0.40690   0.16320   0.03648   Biso      1.000     C          0.603223  
         C119      1.0000    0.11704   0.50960   0.69962   Biso      1.000     C          0.097735  
         C120      1.0000    0.67681   0.92290   0.19748   Biso      1.000     C          -0.146259           
         Cd1       1.0000    0.25000   0.25000   0.00000   Biso      1.000     Cd          1.137979  
         Cd2       1.0000    0.75000   0.75000   0.00000   Biso      1.000     Cd          1.137979  
         Cd3       1.0000    0.40519   0.55062   0.47380   Biso      1.000     Cd          1.010442  
         Cd4       1.0000    0.59481   0.55062   0.02620   Biso      1.000     Cd          1.010442  
         Cd5       1.0000    0.90519   0.05062   0.47380   Biso      1.000     Cd          1.010442  
         Cd6       1.0000    0.90519   0.94938   0.97380   Biso      1.000     Cd          1.010442  
         Cd7       1.0000    0.75000   0.25000   0.50000   Biso      1.000     Cd          1.13798   
         Cd8       1.0000    0.25000   0.75000   0.50000   Biso      1.000     Cd          1.13798   
         Cd9       1.0000    0.09481   0.94938   0.52620   Biso      1.000     Cd          1.010442  
         Cd10      1.0000    0.09481   0.05062   0.02620   Biso      1.000     Cd          1.010442  
         Cd11      1.0000    0.40519   0.44938   0.97380   Biso      1.000     Cd          1.010442  
         Cd12      1.0000    0.59481   0.44938   0.52620   Biso      1.000     Cd          1.010442  
         H1        1.0000    0.43730   0.23260   0.85940   Biso      1.000     H          0.121811  
         H2        1.0000    0.42220   0.87140   0.74310   Biso      1.000     H          0.116863  
         H3        1.0000    0.97490   0.65890   0.37120   Biso      1.000     H          0.132464  
         H4        1.0000    0.32150   0.13600   0.83990   Biso      1.000     H          0.11108   
         H5        1.0000    0.39090   0.09580   0.51680   Biso      1.000     H          0.132225  
         H6        1.0000    0.47490   0.84110   0.87120   Biso      1.000     H          0.132464  
         H7        1.0000    0.32680   0.83940   0.65520   Biso      1.000     H          0.094974  
         H8        1.0000    0.22610   0.10420   0.75080   Biso      1.000     H          0.11451   
         H9        1.0000    0.10910   0.40420   0.48320   Biso      1.000     H          0.132224  
         H10       1.0000    0.17320   0.66060   0.34480   Biso      1.000     H          0.094974  
         H11       1.0000    0.52510   0.84110   0.62880   Biso      1.000     H          0.132464  
         H12       1.0000    0.93730   0.26740   0.35940   Biso      1.000     H          0.121811  
         H13       1.0000    0.22610   0.89580   0.25080   Biso      1.000     H          0.114509  
         H14       1.0000    0.77390   0.89580   0.24920   Biso      1.000     H          0.114509  
         H15       1.0000    0.92220   0.62860   0.24310   Biso      1.000     H          0.116863  
         H16       1.0000    0.67320   0.16060   0.34480   Biso      1.000     H          0.094974  
         H17       1.0000    0.67850   0.86400   0.16010   Biso      1.000     H          0.11108   
         H18       1.0000    0.89090   0.59580   0.51680   Biso      1.000     H          0.132225  
         H19       1.0000    0.57780   0.12860   0.25690   Biso      1.000     H          0.116863  
         H20       1.0000    0.02510   0.34110   0.62880   Biso      1.000     H          0.132464  
         H21       1.0000    0.06270   0.73260   0.64060   Biso      1.000     H          0.121811  
         H22       1.0000    0.07780   0.37140   0.75690   Biso      1.000     H          0.116863  
         H23       1.0000    0.56270   0.76740   0.14060   Biso      1.000     H          0.121811  
         H24       1.0000    0.17850   0.63600   0.66010   Biso      1.000     H          0.11108   
         H25       1.0000    0.17320   0.33940   0.84480   Biso      1.000     H          0.094974  
         H26       1.0000    0.52510   0.15890   0.12880   Biso      1.000     H          0.132464  
         H27       1.0000    0.27390   0.60420   0.74920   Biso      1.000     H          0.11451   
         H28       1.0000    0.27390   0.39580   0.24920   Biso      1.000     H          0.114509  
         H29       1.0000    0.17850   0.36400   0.16010   Biso      1.000     H          0.11108   
         H30       1.0000    0.60910   0.09580   0.98320   Biso      1.000     H          0.132225  
         H31       1.0000    0.82680   0.66060   0.15520   Biso      1.000     H          0.094974  
         H32       1.0000    0.32680   0.16060   0.15520   Biso      1.000     H          0.094974  
         H33       1.0000    0.32150   0.86400   0.33990   Biso      1.000     H          0.11108   
         H34       1.0000    0.89090   0.40420   0.01680   Biso      1.000     H          0.132224  
         H35       1.0000    0.42220   0.12860   0.24310   Biso      1.000     H          0.116863  
         H36       1.0000    0.43730   0.76740   0.35940   Biso      1.000     H          0.121811  
         H37       1.0000    0.10910   0.59580   0.98320   Biso      1.000     H          0.132225  
         H38       1.0000    0.97490   0.34110   0.87120   Biso      1.000     H          0.132464  
         H39       1.0000    0.47490   0.15890   0.37120   Biso      1.000     H          0.132464  
         H40       1.0000    0.93730   0.73260   0.85940   Biso      1.000     H          0.121811  
         H41       1.0000    0.92220   0.37140   0.74310   Biso      1.000     H          0.116863  
         H42       1.0000    0.82150   0.63600   0.83990   Biso      1.000     H          0.11108   
         H43       1.0000    0.82150   0.36400   0.33990   Biso      1.000     H          0.11108   
         H44       1.0000    0.60910   0.90420   0.48320   Biso      1.000     H          0.132224  
         H45       1.0000    0.82680   0.33940   0.65520   Biso      1.000     H          0.094974  
         H46       1.0000    0.39090   0.90420   0.01680   Biso      1.000     H          0.132224  
         H47       1.0000    0.67320   0.83940   0.84480   Biso      1.000     H          0.094974  
         H48       1.0000    0.02510   0.65890   0.12880   Biso      1.000     H          0.132464  
         H49       1.0000    0.56270   0.23260   0.64060   Biso      1.000     H          0.121811  
         H50       1.0000    0.07780   0.62860   0.25690   Biso      1.000     H          0.116863  
         H51       1.0000    0.72610   0.39580   0.25080   Biso      1.000     H          0.11451   
         H52       1.0000    0.77390   0.10420   0.74920   Biso      1.000     H          0.11451   
         H53       1.0000    0.72610   0.60420   0.75080   Biso      1.000     H          0.114509  
         H54       1.0000    0.06270   0.26740   0.14060   Biso      1.000     H          0.121811  
         H55       1.0000    0.67850   0.13600   0.66010   Biso      1.000     H          0.11108   
         H56       1.0000    0.57780   0.87140   0.75690   Biso      1.000     H          0.116863  
         O1        1.0000    0.35008   0.49980   0.35739   Biso      1.000     O          -0.51991  
         O2        1.0000    0.79174   0.89030   0.92129   Biso      1.000     O          -0.646499           
         O3        1.0000    0.85008   0.00020   0.85739   Biso      1.000     O          -0.51991  
         O4        1.0000    0.29174   0.60970   0.42129   Biso      1.000     O          -0.646499           
         O5        1.0000    0.00426   0.91850   0.93373   Biso      1.000     O          -0.587359           
         O6        1.0000    0.93494   0.77600   0.04125   Biso      1.000     O          -0.56092  
         O7        1.0000    0.50426   0.58150   0.43373   Biso      1.000     O          -0.587359           
         O8        1.0000    0.65307   0.86190   0.99228   Biso      1.000     O          -0.581209           
         O9        1.0000    0.39749   0.34070   0.50833   Biso      1.000     O          -0.528947           
         O10       1.0000    0.43494   0.72400   0.54125   Biso      1.000     O          -0.56092  
         O11       1.0000    0.15307   0.63810   0.49228   Biso      1.000     O          -0.581209           
         O12       1.0000    0.35008   0.50020   0.85739   Biso      1.000     O          -0.51991  
         O13       1.0000    0.29174   0.39030   0.92129   Biso      1.000     O          -0.646499           
         O14       1.0000    0.89749   0.15930   0.00833   Biso      1.000     O          -0.528947           
         O15       1.0000    0.50426   0.41850   0.93373   Biso      1.000     O          -0.587359           
         O16       1.0000    0.65307   0.13810   0.49228   Biso      1.000     O          -0.581209           
         O17       1.0000    0.43494   0.27600   0.04125   Biso      1.000     O          -0.56092  
         O18       1.0000    0.06506   0.22400   0.95875   Biso      1.000     O          -0.56092  
         O19       1.0000    0.10251   0.84070   0.99167   Biso      1.000     O          -0.528947           
         O20       1.0000    0.99574   0.08150   0.06627   Biso      1.000     O          -0.587359           
         O21       1.0000    0.14992   0.99980   0.14261   Biso      1.000     O          -0.51991  
         O22       1.0000    0.70826   0.60970   0.07871   Biso      1.000     O          -0.646499           
         O23       1.0000    0.64992   0.49980   0.14261   Biso      1.000     O          -0.51991  
         O24       1.0000    0.49574   0.58150   0.06627   Biso      1.000     O          -0.587359           
         O25       1.0000    0.60251   0.34070   0.99167   Biso      1.000     O          -0.528947           
         O26       1.0000    0.56506   0.72400   0.95875   Biso      1.000     O          -0.56092  
         O27       1.0000    0.84693   0.63810   0.00772   Biso      1.000     O          -0.581209           
         O28       1.0000    0.84693   0.36190   0.50772   Biso      1.000     O          -0.581209           
         O29       1.0000    0.56506   0.27600   0.45875   Biso      1.000     O          -0.56092  
         O30       1.0000    0.60251   0.65930   0.49167   Biso      1.000     O          -0.528947           
         O31       1.0000    0.49574   0.41850   0.56627   Biso      1.000     O          -0.587359           
         O32       1.0000    0.64992   0.50020   0.64261   Biso      1.000     O          -0.51991  
         O33       1.0000    0.70826   0.39030   0.57871   Biso      1.000     O          -0.646499           
         O34       1.0000    0.34693   0.86190   0.50772   Biso      1.000     O          -0.581209           
         O35       1.0000    0.79174   0.10970   0.42129   Biso      1.000     O          -0.646499           
         O36       1.0000    0.85008   0.99980   0.35739   Biso      1.000     O          -0.51991  
         O37       1.0000    0.00426   0.08150   0.43373   Biso      1.000     O          -0.587359           
         O38       1.0000    0.89749   0.84070   0.50833   Biso      1.000     O          -0.528947           
         O39       1.0000    0.93494   0.22400   0.54125   Biso      1.000     O          -0.56092  
         O40       1.0000    0.06506   0.77600   0.45875   Biso      1.000     O          -0.56092  
         O41       1.0000    0.34693   0.13810   0.00772   Biso      1.000     O          -0.581209           
         O42       1.0000    0.10251   0.15930   0.49167   Biso      1.000     O          -0.528947           
         O43       1.0000    0.99574   0.91850   0.56627   Biso      1.000     O          -0.587359           
         O44       1.0000    0.14992   0.00020   0.64261   Biso      1.000     O          -0.51991  
         O45       1.0000    0.20826   0.89030   0.57871   Biso      1.000     O          -0.646499           
         O46       1.0000    0.15307   0.36190   0.99228   Biso      1.000     O          -0.581209           
         O47       1.0000    0.39749   0.65930   0.00833   Biso      1.000     O          -0.528947           
         O48       1.0000    0.20826   0.10970   0.07871   Biso      1.000     O          -0.646499 