
##########################################################################
#               Crystallographic Information Format file
#               Produced by PyCifRW module
#
#  This is a CIF file.  CIF has been adopted by the International
#  Union of Crystallography as the standard for data archiving and
#  transmission.
#
#  For information on this file format, follow the CIF links at
#  http://www.iucr.org
##########################################################################

data_image0

_cell_length_a                          11.392
_cell_length_b                          15.5684
_cell_length_c                          17.6685
_cell_angle_alpha                       82.4152
_cell_angle_beta                        71.193
_cell_angle_gamma                       68.5389
_symmetry_space_group_name_H-M          'P 1'
_symmetry_int_tables_number             1
loop_
  _symmetry_equiv_pos_as_xyz
         'x, y, z' 
loop_
  _atom_site_label
  _atom_site_occupancy
  _atom_site_fract_x
  _atom_site_fract_y
  _atom_site_fract_z
  _atom_site_thermal_displace_type
  _atom_site_B_iso_or_equiv
  _atom_site_type_symbol
  _atom_site_charge
         C1        1.0000    0.01710   0.37840   0.79020   Biso      1.000     C          0.071088  
         C2        1.0000    0.42450   0.99220   0.70580   Biso      1.000     C          -0.18253699999999998          
         C3        1.0000    0.37000   0.05880   0.76360   Biso      1.000     C          0.087167  
         C4        1.0000    0.43830   0.06810   0.81950   Biso      1.000     C          0.20655199999999999           
         C5        1.0000    0.53820   0.99410   0.83950   Biso      1.000     C          -0.245651           
         C6        1.0000    0.59980   0.00670   0.89050   Biso      1.000     C          0.125539  
         C7        1.0000    0.86120   0.87090   0.99310   Biso      1.000     C          -0.091291           
         C8        1.0000    0.75920   0.94370   0.97270   Biso      1.000     C          -0.142871           
         C9        1.0000    0.71010   0.93030   0.91350   Biso      1.000     C          0.060603  
         C10       1.0000    0.35810   0.99400   0.65180   Biso      1.000     C          0.094373  
         C11       1.0000    0.76400   0.84490   0.87870   Biso      1.000     C          -0.148791           
         C12       1.0000    0.91310   0.78720   0.95920   Biso      1.000     C          -0.012902           
         C13       1.0000    0.01870   0.70780   0.98440   Biso      1.000     C          0.559187  
         C14       1.0000    0.27350   0.78510   0.47930   Biso      1.000     C          -0.193679           
         C15       1.0000    0.21070   0.87250   0.51110   Biso      1.000     C          0.039586  
         C16       1.0000    0.39510   0.91050   0.45670   Biso      1.000     C          0.08624   
         C17       1.0000    0.46460   0.82490   0.42170   Biso      1.000     C          -0.163939           
         C18       1.0000    0.40550   0.75960   0.43300   Biso      1.000     C          0.0868    
         C19       1.0000    0.47920   0.66560   0.39940   Biso      1.000     C          0.212304  
         C20       1.0000    0.86400   0.77280   0.90220   Biso      1.000     C          -0.10776600000000001          
         C21       1.0000    0.42860   0.59460   0.41920   Biso      1.000     C          -0.234855           
         C22       1.0000    0.18570   0.12160   0.70980   Biso      1.000     C          0.070992  
         C23       1.0000    0.55760   0.09460   0.91920   Biso      1.000     C          -0.23215999999999998          
         C24       1.0000    0.13600   0.22720   0.09780   Biso      1.000     C          -0.107769           
         C25       1.0000    0.23600   0.15510   0.12130   Biso      1.000     C          -0.148794           
         C26       1.0000    0.13670   0.37470   0.73430   Biso      1.000     C          -0.166643           
         C27       1.0000    0.57140   0.40540   0.58080   Biso      1.000     C          -0.23485799999999998          
         C28       1.0000    0.52080   0.33440   0.60060   Biso      1.000     C          0.212308  
         C29       1.0000    0.59450   0.24040   0.56700   Biso      1.000     C          0.086796  
         C30       1.0000    0.53540   0.17510   0.57830   Biso      1.000     C          -0.163936           
         C31       1.0000    0.60490   0.08950   0.54330   Biso      1.000     C          0.086239  
         C32       1.0000    0.24570   0.12530   0.76570   Biso      1.000     C          -0.166714           
         C33       1.0000    0.78930   0.12750   0.48890   Biso      1.000     C          0.039586  
         C34       1.0000    0.28990   0.06970   0.08650   Biso      1.000     C          0.06060599999999999           
         C35       1.0000    0.00390   0.50600   0.84820   Biso      1.000     C          0.0931    
         C36       1.0000    0.46210   0.28510   0.97930   Biso      1.000     C          -0.195003           
         C37       1.0000    0.40570   0.37250   0.01110   Biso      1.000     C          0.03995   
         C38       1.0000    0.23770   0.41050   0.95670   Biso      1.000     C          0.090654  
         C39       1.0000    0.28880   0.32490   0.92170   Biso      1.000     C          -0.167134           
         C40       1.0000    0.40190   0.25960   0.93300   Biso      1.000     C          0.08741   
         C41       1.0000    0.45580   0.16560   0.89940   Biso      1.000     C          0.211919  
         C42       1.0000    0.72650   0.21490   0.52070   Biso      1.000     C          -0.193679           
         C43       1.0000    0.86330   0.62530   0.26570   Biso      1.000     C          -0.16664500000000002          
         C44       1.0000    0.98290   0.62160   0.20980   Biso      1.000     C          0.071089  
         C45       1.0000    0.99610   0.49400   0.15180   Biso      1.000     C          0.0931    
         C46       1.0000    0.54420   0.83440   0.10060   Biso      1.000     C          0.211921  
         C47       1.0000    0.59810   0.74040   0.06700   Biso      1.000     C          0.087404  
         C48       1.0000    0.71120   0.67510   0.07830   Biso      1.000     C          -0.167128           
         C49       1.0000    0.76230   0.58950   0.04330   Biso      1.000     C          0.090654  
         C50       1.0000    0.59430   0.62750   0.98890   Biso      1.000     C          0.03995   
         C51       1.0000    0.53790   0.71490   0.02070   Biso      1.000     C          -0.195002           
         C52       1.0000    0.71090   0.79220   0.51560   Biso      1.000     C          0.560616  
         C53       1.0000    0.65950   0.71280   0.54080   Biso      1.000     C          -0.013751           
         C54       1.0000    0.44240   0.90540   0.08080   Biso      1.000     C          -0.23216199999999998          
         C55       1.0000    0.53900   0.72720   0.59780   Biso      1.000     C          -0.10797799999999999          
         C56       1.0000    0.55390   0.56970   0.58650   Biso      1.000     C          0.062599  
         C57       1.0000    0.67560   0.55630   0.52730   Biso      1.000     C          -0.14391800000000002          
         C58       1.0000    0.72520   0.62910   0.50690   Biso      1.000     C          -0.089803           
         C59       1.0000    0.49700   0.49330   0.60950   Biso      1.000     C          0.12670399999999998           
         C60       1.0000    0.37180   0.50590   0.66050   Biso      1.000     C          -0.24718299999999999          
         C61       1.0000    0.32590   0.43190   0.68050   Biso      1.000     C          0.206011  
         C62       1.0000    0.19240   0.44120   0.73640   Biso      1.000     C          0.08860499999999999           
         C63       1.0000    0.12250   0.50780   0.79420   Biso      1.000     C          -0.185095           
         C64       1.0000    0.48760   0.65510   0.62130   Biso      1.000     C          -0.149446           
         C65       1.0000    0.75430   0.87470   0.23430   Biso      1.000     C          -0.166714           
         C66       1.0000    0.81430   0.87840   0.29020   Biso      1.000     C          0.070992  
         C67       1.0000    0.64190   0.00600   0.34820   Biso      1.000     C          0.09437100000000001           
         C68       1.0000    0.87750   0.49220   0.20580   Biso      1.000     C          -0.185099           
         C69       1.0000    0.80760   0.55880   0.26360   Biso      1.000     C          0.08860900000000001           
         C70       1.0000    0.67410   0.56810   0.31950   Biso      1.000     C          0.206011  
         C71       1.0000    0.62820   0.49410   0.33950   Biso      1.000     C          -0.24718600000000002          
         C72       1.0000    0.50300   0.50670   0.39050   Biso      1.000     C          0.126707  
         C73       1.0000    0.27480   0.37090   0.49310   Biso      1.000     C          -0.089824           
         C74       1.0000    0.32440   0.44370   0.47270   Biso      1.000     C          -0.14391500000000002          
         C75       1.0000    0.44610   0.43030   0.41350   Biso      1.000     C          0.062597  
         C76       1.0000    0.51240   0.34490   0.37870   Biso      1.000     C          -0.149444           
         C77       1.0000    0.46100   0.27280   0.40220   Biso      1.000     C          -0.107984           
         C78       1.0000    0.34050   0.28720   0.45920   Biso      1.000     C          -0.013730000000000001         
         C79       1.0000    0.28910   0.20780   0.48440   Biso      1.000     C          0.5606140000000001  
         C80       1.0000    0.24080   0.05630   0.02730   Biso      1.000     C          -0.142872           
         C81       1.0000    0.13880   0.12910   0.00690   Biso      1.000     C          -0.091292           
         C82       1.0000    0.40020   0.99330   0.10950   Biso      1.000     C          0.125538  
         C83       1.0000    0.46180   0.00590   0.16050   Biso      1.000     C          -0.245648           
         C84       1.0000    0.56170   0.93190   0.18050   Biso      1.000     C          0.20655199999999999           
         C85       1.0000    0.63000   0.94120   0.23640   Biso      1.000     C          0.087163  
         C86       1.0000    0.57550   0.00780   0.29420   Biso      1.000     C          -0.182531           
         C87       1.0000    0.08690   0.21280   0.04080   Biso      1.000     C          -0.012898           
         C88       1.0000    0.98130   0.29220   0.01560   Biso      1.000     C          0.559187  
         Cd1       1.0000    0.15041   0.08587   0.54435   Biso      1.000     Cd          0.318776  
         Cd2       1.0000    0.21937   0.58587   0.04435   Biso      1.000     Cd          0.318335  
         Cd3       1.0000    0.78063   0.41413   0.95565   Biso      1.000     Cd          0.318335  
         Cd4       1.0000    0.84959   0.91413   0.45565   Biso      1.000     Cd          0.318776  
         H1        1.0000    0.10470   0.11920   0.96760   Biso      1.000     H          0.116023  
         H2        1.0000    0.24520   0.31110   0.88970   Biso      1.000     H          0.121252  
         H3        1.0000    0.59950   0.10660   0.95320   Biso      1.000     H          0.12458   
         H4        1.0000    0.20360   0.17220   0.80480   Biso      1.000     H          0.12627   
         H5        1.0000    0.10050   0.16560   0.71280   Biso      1.000     H          0.093751  
         H6        1.0000    0.39670   0.94690   0.61310   Biso      1.000     H          0.088966  
         H7        1.0000    0.50740   0.94510   0.70290   Biso      1.000     H          0.12867   
         H8        1.0000    0.56390   0.93470   0.81810   Biso      1.000     H          0.12696400000000002           
         H9        1.0000    0.89530   0.88080   0.03240   Biso      1.000     H          0.116023  
         H10       1.0000    0.72370   0.00130   0.99870   Biso      1.000     H          0.113408  
         H11       1.0000    0.73310   0.83440   0.83800   Biso      1.000     H          0.110846  
         H12       1.0000    0.89790   0.71370   0.87870   Biso      1.000     H          0.10875599999999999           
         H13       1.0000    0.22740   0.74290   0.48890   Biso      1.000     H          0.124572  
         H14       1.0000    0.12070   0.88890   0.54230   Biso      1.000     H          0.05476   
         H15       1.0000    0.43970   0.95350   0.44870   Biso      1.000     H          0.09272999999999999           
         H16       1.0000    0.55400   0.81110   0.38970   Biso      1.000     H          0.119821  
         H17       1.0000    0.34070   0.60660   0.45320   Biso      1.000     H          0.12520799999999999           
         H18       1.0000    0.81940   0.67220   0.30480   Biso      1.000     H          0.126073  
         H19       1.0000    0.02110   0.66560   0.21280   Biso      1.000     H          0.09341100000000001           
         H20       1.0000    0.04330   0.44690   0.11310   Biso      1.000     H          0.089959  
         H21       1.0000    0.84460   0.44510   0.20290   Biso      1.000     H          0.129826  
         H22       1.0000    0.68330   0.43470   0.31810   Biso      1.000     H          0.12727   
         H23       1.0000    0.19150   0.38080   0.53240   Biso      1.000     H          0.114946  
         H24       1.0000    0.27630   0.50130   0.49870   Biso      1.000     H          0.113622  
         H25       1.0000    0.59450   0.33440   0.33800   Biso      1.000     H          0.110354  
         H26       1.0000    0.50970   0.21370   0.37870   Biso      1.000     H          0.109008  
         H27       1.0000    0.15810   0.45350   0.94870   Biso      1.000     H          0.091389  
         H28       1.0000    0.44810   0.38890   0.04230   Biso      1.000     H          0.054241  
         H29       1.0000    0.54080   0.24290   0.98890   Biso      1.000     H          0.125506  
         H30       1.0000    0.72370   0.49870   0.50130   Biso      1.000     H          0.113622  
         H31       1.0000    0.60330   0.05310   0.38690   Biso      1.000     H          0.088966  
         H32       1.0000    0.89950   0.83440   0.28720   Biso      1.000     H          0.093751  
         H33       1.0000    0.79640   0.82780   0.19520   Biso      1.000     H          0.12627   
         H34       1.0000    0.40050   0.89340   0.04680   Biso      1.000     H          0.12458   
         H35       1.0000    0.75480   0.68890   0.11030   Biso      1.000     H          0.121252  
         H36       1.0000    0.84190   0.54650   0.05130   Biso      1.000     H          0.091389  
         H37       1.0000    0.55190   0.61110   0.95770   Biso      1.000     H          0.054241  
         H38       1.0000    0.45920   0.75710   0.01110   Biso      1.000     H          0.125506  
         H39       1.0000    0.49030   0.78630   0.62130   Biso      1.000     H          0.109008  
         H40       1.0000    0.40550   0.66560   0.66200   Biso      1.000     H          0.110354  
         H41       1.0000    0.27630   0.99870   0.00130   Biso      1.000     H          0.113408  
         H42       1.0000    0.49260   0.05490   0.29710   Biso      1.000     H          0.128669  
         H43       1.0000    0.80850   0.61920   0.46760   Biso      1.000     H          0.114944  
         H44       1.0000    0.15540   0.55490   0.79710   Biso      1.000     H          0.129826  
         H45       1.0000    0.95670   0.55310   0.88690   Biso      1.000     H          0.089959  
         H46       1.0000    0.97890   0.33440   0.78720   Biso      1.000     H          0.09341100000000001           
         H47       1.0000    0.18060   0.32780   0.69520   Biso      1.000     H          0.126073  
         H48       1.0000    0.65930   0.39340   0.54680   Biso      1.000     H          0.125209  
         H49       1.0000    0.44600   0.18890   0.61030   Biso      1.000     H          0.119821  
         H50       1.0000    0.56030   0.04650   0.55130   Biso      1.000     H          0.09272999999999999           
         H51       1.0000    0.87930   0.11110   0.45770   Biso      1.000     H          0.05476   
         H52       1.0000    0.77260   0.25710   0.51110   Biso      1.000     H          0.124573  
         H53       1.0000    0.26690   0.16560   0.16200   Biso      1.000     H          0.110846  
         H54       1.0000    0.10210   0.28630   0.12130   Biso      1.000     H          0.10875599999999999           
         H55       1.0000    0.31670   0.56530   0.68190   Biso      1.000     H          0.12727   
         H56       1.0000    0.43610   0.06530   0.18190   Biso      1.000     H          0.12696400000000002           
         N1        1.0000    0.60260   0.84700   0.15060   Biso      1.000     N          -0.333937           
         N2        1.0000    0.75720   0.94130   0.34830   Biso      1.000     N          -0.187937           
         N3        1.0000    0.39980   0.34700   0.65060   Biso      1.000     N          -0.33246  
         N4        1.0000    0.72970   0.06450   0.49970   Biso      1.000     N          -0.191078           
         N5        1.0000    0.70610   0.56450   0.99970   Biso      1.000     N          -0.19226300000000002          
         N6        1.0000    0.29390   0.43550   0.00030   Biso      1.000     N          -0.19226300000000002          
         N7        1.0000    0.24280   0.05870   0.65170   Biso      1.000     N          -0.187937           
         N8        1.0000    0.39740   0.15300   0.84940   Biso      1.000     N          -0.333936           
         N9        1.0000    0.27030   0.93550   0.50030   Biso      1.000     N          -0.191078           
         N10       1.0000    0.04680   0.55870   0.15170   Biso      1.000     N          -0.186252           
         N11       1.0000    0.60020   0.65300   0.34940   Biso      1.000     N          -0.33246  
         N12       1.0000    0.95320   0.44130   0.84830   Biso      1.000     N          -0.186252           
         O1        1.0000    0.94970   0.37170   0.03650   Biso      1.000     O          -0.524718           
         O2        1.0000    0.92810   0.27000   0.97020   Biso      1.000     O          -0.552053           
         O3        1.0000    0.07190   0.73000   0.02980   Biso      1.000     O          -0.552053           
         O4        1.0000    0.05030   0.62830   0.96350   Biso      1.000     O          -0.5247189999999999           
         O5        1.0000    0.16830   0.23000   0.52980   Biso      1.000     O          -0.551994           
         O6        1.0000    0.35790   0.12830   0.46350   Biso      1.000     O          -0.5254880000000001           
         O7        1.0000    0.64210   0.87170   0.53650   Biso      1.000     O          -0.5254880000000001           
         O8        1.0000    0.83170   0.77000   0.47020   Biso      1.000     O          -0.551995 