
##########################################################################
#               Crystallographic Information Format file
#               Produced by PyCifRW module
#
#  This is a CIF file.  CIF has been adopted by the International
#  Union of Crystallography as the standard for data archiving and
#  transmission.
#
#  For information on this file format, follow the CIF links at
#  http://www.iucr.org
##########################################################################

data_image0

_cell_length_a                          5.5807
_cell_length_b                          13.793
_cell_length_c                          24.064
_cell_angle_alpha                       90
_cell_angle_beta                        95.91
_cell_angle_gamma                       90
_symmetry_space_group_name_H-M          'P 1'
_symmetry_int_tables_number             1
loop_
  _symmetry_equiv_pos_as_xyz
         'x, y, z' 
loop_
  _atom_site_label
  _atom_site_occupancy
  _atom_site_fract_x
  _atom_site_fract_y
  _atom_site_fract_z
  _atom_site_thermal_displace_type
  _atom_site_B_iso_or_equiv
  _atom_site_type_symbol
  _atom_site_charge
         C1        1.0000    0.12940   0.22530   0.60730   Biso      1.000     C          0.655511  
         C2        1.0000    0.94250   0.23280   0.64830   Biso      1.000     C          -0.360068           
         C3        1.0000    0.02680   0.18320   0.70230   Biso      1.000     C          -0.046433           
         C4        1.0000    0.95040   0.30320   0.92000   Biso      1.000     C          0.681969  
         C5        1.0000    0.81820   0.37610   0.88120   Biso      1.000     C          -0.360301           
         C6        1.0000    0.59740   0.33830   0.84620   Biso      1.000     C          -0.043191           
         C7        1.0000    0.68100   0.96620   0.87780   Biso      1.000     C          0.677579  
         C8        1.0000    0.58420   0.92790   0.82097   Biso      1.000     C          -0.353551           
         C9        1.0000    0.41520   0.00130   0.79040   Biso      1.000     C          -0.037882           
         C10       1.0000    0.69990   0.09670   0.74155   Biso      1.000     C          0.562164  
         C11       1.0000    0.50810   0.32990   0.31839   Biso      1.000     C          0.551114  
         C12       1.0000    0.80880   0.26100   0.77310   Biso      1.000     C          0.558375  
         C13       1.0000    0.05750   0.73280   0.85170   Biso      1.000     C          -0.360068           
         C14       1.0000    0.87060   0.72530   0.89270   Biso      1.000     C          0.655512  
         C15       1.0000    0.97320   0.68320   0.79770   Biso      1.000     C          -0.046433           
         C16       1.0000    0.18180   0.87610   0.61880   Biso      1.000     C          -0.360301           
         C17       1.0000    0.40260   0.83830   0.65380   Biso      1.000     C          -0.043191           
         C18       1.0000    0.31900   0.46620   0.62220   Biso      1.000     C          0.677581  
         C19       1.0000    0.41580   0.42790   0.67903   Biso      1.000     C          -0.353553           
         C20       1.0000    0.58480   0.50130   0.70960   Biso      1.000     C          -0.03788  
         C21       1.0000    0.30010   0.59670   0.75845   Biso      1.000     C          0.562163  
         C22       1.0000    0.50810   0.17010   0.81839   Biso      1.000     C          0.551113  
         C23       1.0000    0.19120   0.76100   0.72690   Biso      1.000     C          0.558375  
         C24       1.0000    0.80880   0.23900   0.27310   Biso      1.000     C          0.558375  
         C25       1.0000    0.41520   0.49870   0.29040   Biso      1.000     C          -0.03788  
         C26       1.0000    0.05750   0.76720   0.35170   Biso      1.000     C          -0.360069           
         C27       1.0000    0.87060   0.77470   0.39270   Biso      1.000     C          0.655513  
         C28       1.0000    0.97320   0.81680   0.29770   Biso      1.000     C          -0.046432           
         C29       1.0000    0.04960   0.69680   0.08000   Biso      1.000     C          0.681969  
         C30       1.0000    0.18180   0.62390   0.11880   Biso      1.000     C          -0.360301           
         C31       1.0000    0.40260   0.66170   0.15380   Biso      1.000     C          -0.043191           
         C32       1.0000    0.31900   0.03380   0.12220   Biso      1.000     C          0.67758   
         C33       1.0000    0.41580   0.07210   0.17903   Biso      1.000     C          -0.35356  
         C34       1.0000    0.58480   0.99870   0.20960   Biso      1.000     C          -0.037879           
         C35       1.0000    0.69990   0.40330   0.24155   Biso      1.000     C          0.562164  
         C36       1.0000    0.30010   0.90330   0.25845   Biso      1.000     C          0.562164  
         C37       1.0000    0.49190   0.82990   0.18161   Biso      1.000     C          0.551112  
         C38       1.0000    0.94250   0.26720   0.14830   Biso      1.000     C          -0.360069           
         C39       1.0000    0.12940   0.27470   0.10730   Biso      1.000     C          0.655514  
         C40       1.0000    0.02680   0.31680   0.20230   Biso      1.000     C          -0.046433           
         C41       1.0000    0.95040   0.19680   0.42000   Biso      1.000     C          0.681969  
         C42       1.0000    0.81820   0.12390   0.38120   Biso      1.000     C          -0.3603   
         C43       1.0000    0.59740   0.16170   0.34620   Biso      1.000     C          -0.043191           
         C44       1.0000    0.68100   0.53380   0.37780   Biso      1.000     C          0.677583  
         C45       1.0000    0.58420   0.57210   0.32097   Biso      1.000     C          -0.353557           
         C46       1.0000    0.19120   0.73900   0.22690   Biso      1.000     C          0.558375  
         C47       1.0000    0.49190   0.67010   0.68161   Biso      1.000     C          0.551115  
         C48       1.0000    0.04960   0.80320   0.58000   Biso      1.000     C          0.68197   
         H1        1.0000    0.50170   0.13230   0.17460   Biso      1.000     H          0.150412  
         H2        1.0000    0.16600   0.21730   0.72020   Biso      1.000     H          0.092812  
         H3        1.0000    0.92950   0.40110   0.85630   Biso      1.000     H          0.157945  
         H4        1.0000    0.77010   0.43010   0.90340   Biso      1.000     H          0.166229  
         H5        1.0000    0.47730   0.32110   0.87090   Biso      1.000     H          0.114061  
         H6        1.0000    0.53100   0.39020   0.82210   Biso      1.000     H          0.111766  
         H7        1.0000    0.71710   0.91450   0.79910   Biso      1.000     H          0.146353  
         H8        1.0000    0.49830   0.86770   0.82540   Biso      1.000     H          0.150408  
         H9        1.0000    0.35220   0.97490   0.75450   Biso      1.000     H          0.110931  
         H10       1.0000    0.28040   0.01320   0.81190   Biso      1.000     H          0.118407  
         H11       1.0000    0.08940   0.80050   0.84460   Biso      1.000     H          0.152901  
         H12       1.0000    0.20650   0.70320   0.86780   Biso      1.000     H          0.161887  
         H13       1.0000    0.92360   0.61760   0.80550   Biso      1.000     H          0.11007   
         H14       1.0000    0.83400   0.71730   0.77980   Biso      1.000     H          0.092813  
         H15       1.0000    0.07050   0.90110   0.64370   Biso      1.000     H          0.157945  
         H16       1.0000    0.64780   0.02510   0.24550   Biso      1.000     H          0.110929  
         H17       1.0000    0.52270   0.82110   0.62910   Biso      1.000     H          0.114062  
         H18       1.0000    0.46900   0.89020   0.67790   Biso      1.000     H          0.111766  
         H19       1.0000    0.28290   0.41450   0.70090   Biso      1.000     H          0.146354  
         H20       1.0000    0.50170   0.36770   0.67460   Biso      1.000     H          0.15041   
         H21       1.0000    0.64780   0.47490   0.74550   Biso      1.000     H          0.11093   
         H22       1.0000    0.71960   0.51320   0.68810   Biso      1.000     H          0.118406  
         H23       1.0000    0.07640   0.11760   0.69450   Biso      1.000     H          0.11007   
         H24       1.0000    0.79350   0.20320   0.63220   Biso      1.000     H          0.161887  
         H25       1.0000    0.22990   0.93010   0.59660   Biso      1.000     H          0.166229  
         H26       1.0000    0.28040   0.48680   0.31190   Biso      1.000     H          0.118407  
         H27       1.0000    0.91060   0.30050   0.65540   Biso      1.000     H          0.1529    
         H28       1.0000    0.46900   0.60980   0.17790   Biso      1.000     H          0.111765  
         H29       1.0000    0.52270   0.67890   0.12910   Biso      1.000     H          0.11406   
         H30       1.0000    0.22990   0.56990   0.09660   Biso      1.000     H          0.166228  
         H31       1.0000    0.07050   0.59890   0.14370   Biso      1.000     H          0.157945  
         H32       1.0000    0.83400   0.78270   0.27980   Biso      1.000     H          0.092812  
         H33       1.0000    0.92360   0.88240   0.30550   Biso      1.000     H          0.11007   
         H34       1.0000    0.20650   0.79680   0.36780   Biso      1.000     H          0.161887  
         H35       1.0000    0.08940   0.69950   0.34460   Biso      1.000     H          0.1529    
         H36       1.0000    0.71960   0.98680   0.18810   Biso      1.000     H          0.118405  
         H37       1.0000    0.91060   0.19950   0.15540   Biso      1.000     H          0.152901  
         H38       1.0000    0.28290   0.08550   0.20090   Biso      1.000     H          0.146354  
         H39       1.0000    0.07640   0.38240   0.19450   Biso      1.000     H          0.11007   
         H40       1.0000    0.16600   0.28270   0.22020   Biso      1.000     H          0.092812  
         H41       1.0000    0.92950   0.09890   0.35630   Biso      1.000     H          0.157945  
         H42       1.0000    0.77010   0.06990   0.40340   Biso      1.000     H          0.166229  
         H43       1.0000    0.47730   0.17890   0.37090   Biso      1.000     H          0.114061  
         H44       1.0000    0.53100   0.10980   0.32210   Biso      1.000     H          0.111767  
         H45       1.0000    0.71710   0.58550   0.29910   Biso      1.000     H          0.146356  
         H46       1.0000    0.49830   0.63230   0.32540   Biso      1.000     H          0.150412  
         H47       1.0000    0.35220   0.52510   0.25450   Biso      1.000     H          0.110931  
         H48       1.0000    0.79350   0.29680   0.13220   Biso      1.000     H          0.161888  
         N1        1.0000    0.46020   0.59420   0.71836   Biso      1.000     N          -0.253079           
         N2        1.0000    0.63970   0.25330   0.81110   Biso      1.000     N          -0.233052           
         N3        1.0000    0.83850   0.17970   0.74095   Biso      1.000     N          -0.240227           
         N4        1.0000    0.53980   0.09420   0.78164   Biso      1.000     N          -0.253079           
         N5        1.0000    0.36030   0.74670   0.18890   Biso      1.000     N          -0.233052           
         N6        1.0000    0.83850   0.32030   0.24095   Biso      1.000     N          -0.240226           
         N7        1.0000    0.53980   0.40580   0.28164   Biso      1.000     N          -0.253078           
         N8        1.0000    0.36030   0.75330   0.68890   Biso      1.000     N          -0.233051           
         N9        1.0000    0.16150   0.82030   0.25905   Biso      1.000     N          -0.240226           
         N10       1.0000    0.46020   0.90580   0.21836   Biso      1.000     N          -0.253079           
         N11       1.0000    0.63970   0.24670   0.31110   Biso      1.000     N          -0.233051           
         N12       1.0000    0.16150   0.67970   0.75905   Biso      1.000     N          -0.240226           
         O1        1.0000    0.86740   0.27990   0.42519   Biso      1.000     O          -0.499909           
         O2        1.0000    0.14510   0.16470   0.44599   Biso      1.000     O          -0.564871           
         O3        1.0000    0.92070   0.16550   0.26715   Biso      1.000     O          -0.463552           
         O4        1.0000    0.36240   0.33570   0.35258   Biso      1.000     O          -0.457085           
         O5        1.0000    0.71520   0.47010   0.20905   Biso      1.000     O          -0.467932           
         O6        1.0000    0.33100   0.19420   0.62072   Biso      1.000     O          -0.53571  
         O7        1.0000    0.57010   0.94660   0.91881   Biso      1.000     O          -0.536039           
         O8        1.0000    0.16980   0.55970   0.48370   Biso      1.000     O          -0.547456           
         O9        1.0000    0.33840   0.12870   0.96607   Biso      1.000     O          -0.640435           
         O10       1.0000    0.05900   0.25620   0.55716   Biso      1.000     O          -0.574067           
         O11       1.0000    0.86800   0.48060   0.37895   Biso      1.000     O          -0.517737           
         O12       1.0000    0.33840   0.37130   0.46607   Biso      1.000     O          -0.640428           
         O13       1.0000    0.83020   0.05970   0.01630   Biso      1.000     O          -0.547444           
         O14       1.0000    0.57010   0.55340   0.41881   Biso      1.000     O          -0.536043           
         O15       1.0000    0.94100   0.74380   0.44284   Biso      1.000     O          -0.57407  
         O16       1.0000    0.66160   0.87130   0.03393   Biso      1.000     O          -0.640388           
         O17       1.0000    0.13200   0.98060   0.12105   Biso      1.000     O          -0.517734           
         O18       1.0000    0.85490   0.66470   0.05401   Biso      1.000     O          -0.564874           
         O19       1.0000    0.13260   0.77990   0.07481   Biso      1.000     O          -0.499914           
         O20       1.0000    0.07930   0.66550   0.23285   Biso      1.000     O          -0.463553           
         O21       1.0000    0.63760   0.83570   0.14742   Biso      1.000     O          -0.457081           
         O22       1.0000    0.28480   0.97010   0.29095   Biso      1.000     O          -0.467932           
         O23       1.0000    0.33100   0.30580   0.12072   Biso      1.000     O          -0.535706           
         O24       1.0000    0.16980   0.94030   0.98370   Biso      1.000     O          -0.547461           
         O25       1.0000    0.05900   0.24380   0.05716   Biso      1.000     O          -0.574068           
         O26       1.0000    0.86800   0.01940   0.87895   Biso      1.000     O          -0.517741           
         O27       1.0000    0.66900   0.80580   0.37928   Biso      1.000     O          -0.535711           
         O28       1.0000    0.86740   0.22010   0.92519   Biso      1.000     O          -0.499909           
         O29       1.0000    0.42990   0.05340   0.08119   Biso      1.000     O          -0.536053           
         O30       1.0000    0.28480   0.52990   0.79095   Biso      1.000     O          -0.467932           
         O31       1.0000    0.14510   0.33530   0.94599   Biso      1.000     O          -0.564872           
         O32       1.0000    0.07930   0.83450   0.73285   Biso      1.000     O          -0.463552           
         O33       1.0000    0.13260   0.72010   0.57481   Biso      1.000     O          -0.499911           
         O34       1.0000    0.85490   0.83530   0.55401   Biso      1.000     O          -0.56487  
         O35       1.0000    0.13200   0.51940   0.62105   Biso      1.000     O          -0.517738           
         O36       1.0000    0.63760   0.66430   0.64742   Biso      1.000     O          -0.457088           
         O37       1.0000    0.66160   0.62870   0.53393   Biso      1.000     O          -0.640434           
         O38       1.0000    0.94100   0.75620   0.94284   Biso      1.000     O          -0.574066           
         O39       1.0000    0.42990   0.44660   0.58119   Biso      1.000     O          -0.536033           
         O40       1.0000    0.66900   0.69420   0.87928   Biso      1.000     O          -0.535706           
         O41       1.0000    0.71520   0.02990   0.70905   Biso      1.000     O          -0.467931           
         O42       1.0000    0.36240   0.16430   0.85258   Biso      1.000     O          -0.457083           
         O43       1.0000    0.92070   0.33450   0.76715   Biso      1.000     O          -0.463551           
         O44       1.0000    0.83020   0.44030   0.51630   Biso      1.000     O          -0.547466           
         Zn1       1.0000    0.69106   0.75277   0.49411   Biso      1.000     Zn          0.982382  
         Zn2       1.0000    0.00171   0.07622   0.94983   Biso      1.000     Zn          0.973553  
         Zn3       1.0000    0.30894   0.25277   0.00589   Biso      1.000     Zn          0.982376  
         Zn4       1.0000    0.00171   0.42378   0.44983   Biso      1.000     Zn          0.973558  
         Zn5       1.0000    0.50000   0.50000   0.50000   Biso      1.000     Zn          0.992309  
         Zn6       1.0000    0.99829   0.92378   0.05017   Biso      1.000     Zn          0.973546  
         Zn7       1.0000    0.69106   0.74723   0.99411   Biso      1.000     Zn          0.982372  
         Zn8       1.0000    0.50000   0.00000   0.00000   Biso      1.000     Zn          0.992296  
         Zn9       1.0000    0.30894   0.24723   0.50589   Biso      1.000     Zn          0.982377  
         Zn10      1.0000    0.99829   0.57622   0.55017   Biso      1.000     Zn          0.973559 