
##########################################################################
#               Crystallographic Information Format file
#               Produced by PyCifRW module
#
#  This is a CIF file.  CIF has been adopted by the International
#  Union of Crystallography as the standard for data archiving and
#  transmission.
#
#  For information on this file format, follow the CIF links at
#  http://www.iucr.org
##########################################################################

data_image0

_cell_length_a                          12.618
_cell_length_b                          12.927
_cell_length_c                          13.012
_cell_angle_alpha                       78.3
_cell_angle_beta                        62.22
_cell_angle_gamma                       62.07
_symmetry_space_group_name_H-M          'P 1'
_symmetry_int_tables_number             1
loop_
  _symmetry_equiv_pos_as_xyz
         'x, y, z' 
loop_
  _atom_site_label
  _atom_site_occupancy
  _atom_site_fract_x
  _atom_site_fract_y
  _atom_site_fract_z
  _atom_site_thermal_displace_type
  _atom_site_B_iso_or_equiv
  _atom_site_type_symbol
  _atom_site_charge
         C1        1.0000    0.60200   0.92940   0.90570   Biso      1.000     C          -0.15348399999999998          
         C2        1.0000    0.89940   0.96670   0.55870   Biso      1.000     C          -0.13776  
         C3        1.0000    0.76440   0.14100   0.69330   Biso      1.000     C          -0.18526600000000001          
         C4        1.0000    0.88330   0.05040   0.82360   Biso      1.000     C          0.07732   
         C5        1.0000    0.44760   0.19240   0.64460   Biso      1.000     C          0.145419  
         C6        1.0000    0.55660   0.01000   0.61930   Biso      1.000     C          0.082691  
         C7        1.0000    0.44790   0.95110   0.82510   Biso      1.000     C          -0.19029000000000001          
         C8        1.0000    0.47470   0.97600   0.91670   Biso      1.000     C          0.109922  
         C9        1.0000    0.37270   0.04690   0.01180   Biso      1.000     C          -0.14052  
         C10       1.0000    0.83720   0.93280   0.25240   Biso      1.000     C          0.688466  
         C11       1.0000    0.91730   0.80130   0.23890   Biso      1.000     C          -0.373399           
         C12       1.0000    0.87800   0.73760   0.35260   Biso      1.000     C          -0.05427100000000001          
         C13       1.0000    0.92210   0.54080   0.31290   Biso      1.000     C          0.554823  
         C14       1.0000    0.07320   0.56850   0.35810   Biso      1.000     C          0.549716  
         C15       1.0000    0.10820   0.37130   0.33200   Biso      1.000     C          0.55961   
         C16       1.0000    0.95250   0.34490   0.28860   Biso      1.000     C          -0.039173           
         C17       1.0000    0.83000   0.34330   0.39020   Biso      1.000     C          -0.37295900000000004          
         C18       1.0000    0.79200   0.25510   0.37360   Biso      1.000     C          0.673983  
         C19       1.0000    0.26420   0.39830   0.37370   Biso      1.000     C          -0.050354           
         C20       1.0000    0.38780   0.38350   0.26340   Biso      1.000     C          -0.360288           
         C21       1.0000    0.51470   0.30710   0.27810   Biso      1.000     C          0.664791  
         C22       1.0000    0.00920   0.90130   0.46740   Biso      1.000     C          -0.13616199999999998          
         C23       1.0000    0.88620   0.06730   0.59470   Biso      1.000     C          0.107101  
         C24       1.0000    0.99080   0.09870   0.53260   Biso      1.000     C          -0.136237           
         C25       1.0000    0.75020   0.17950   0.95900   Biso      1.000     C          0.137638  
         C26       1.0000    0.10060   0.03330   0.44130   Biso      1.000     C          -0.13776  
         C27       1.0000    0.48530   0.69290   0.72190   Biso      1.000     C          0.6647770000000001  
         C28       1.0000    0.61220   0.61650   0.73660   Biso      1.000     C          -0.360167           
         C29       1.0000    0.73580   0.60170   0.62630   Biso      1.000     C          -0.050369           
         C30       1.0000    0.20800   0.74490   0.62640   Biso      1.000     C          0.674044  
         C31       1.0000    0.17000   0.65670   0.60980   Biso      1.000     C          -0.372961           
         C32       1.0000    0.04750   0.65510   0.71140   Biso      1.000     C          -0.039142           
         C33       1.0000    0.89180   0.62870   0.66800   Biso      1.000     C          0.559633  
         C34       1.0000    0.11380   0.93270   0.40530   Biso      1.000     C          0.107268  
         C35       1.0000    0.07790   0.45920   0.68710   Biso      1.000     C          0.554848  
         C36       1.0000    0.12200   0.26240   0.64740   Biso      1.000     C          -0.054269000000000005         
         C37       1.0000    0.08270   0.19870   0.76110   Biso      1.000     C          -0.37340500000000004          
         C38       1.0000    0.92680   0.43150   0.64190   Biso      1.000     C          0.5497340000000001  
         C39       1.0000    0.39800   0.07060   0.09430   Biso      1.000     C          -0.153474           
         C40       1.0000    0.23560   0.85900   0.30670   Biso      1.000     C          -0.185301           
         C41       1.0000    0.16280   0.06720   0.74760   Biso      1.000     C          0.688322  
         C42       1.0000    0.11670   0.94960   0.17640   Biso      1.000     C          0.077203  
         C43       1.0000    0.55240   0.80760   0.35540   Biso      1.000     C          0.145453  
         C44       1.0000    0.24980   0.82050   0.04100   Biso      1.000     C          0.137657  
         C45       1.0000    0.55210   0.04890   0.17490   Biso      1.000     C          -0.19028699999999998          
         C46       1.0000    0.52530   0.02400   0.08330   Biso      1.000     C          0.10986199999999999           
         C47       1.0000    0.62730   0.95310   0.98820   Biso      1.000     C          -0.140625           
         C48       1.0000    0.44340   0.99000   0.38070   Biso      1.000     C          0.082701  
         H1        1.0000    0.09450   0.22690   0.81690   Biso      1.000     H          0.161556  
         H2        1.0000    0.30500   0.88290   0.28740   Biso      1.000     H          0.12529200000000001           
         H3        1.0000    0.26580   0.77800   0.33020   Biso      1.000     H          0.145732  
         H4        1.0000    0.04680   0.01510   0.22220   Biso      1.000     H          0.12100899999999999           
         H5        1.0000    0.38320   0.06430   0.41390   Biso      1.000     H          0.119691  
         H6        1.0000    0.64280   0.03930   0.14170   Biso      1.000     H          0.13178800000000002           
         H7        1.0000    0.49320   0.12910   0.20320   Biso      1.000     H          0.129605  
         H8        1.0000    0.71420   0.92100   0.97970   Biso      1.000     H          0.12053   
         H9        1.0000    0.32820   0.11860   0.15800   Biso      1.000     H          0.11443800000000001           
         H10       1.0000    0.98930   0.21710   0.79200   Biso      1.000     H          0.146893  
         H11       1.0000    0.29092   0.77544   0.95505   Biso      1.000     H          0.11302100000000001           
         H12       1.0000    0.11610   0.23030   0.59000   Biso      1.000     H          0.1009    
         H13       1.0000    0.06570   0.62690   0.77900   Biso      1.000     H          0.11826199999999999           
         H14       1.0000    0.97700   0.73410   0.72880   Biso      1.000     H          0.11042300000000001           
         H15       1.0000    0.15500   0.67520   0.54030   Biso      1.000     H          0.144761  
         H16       1.0000    0.24300   0.57930   0.59860   Biso      1.000     H          0.150667  
         H17       1.0000    0.74780   0.55040   0.57290   Biso      1.000     H          0.105868  
         H18       1.0000    0.72410   0.67730   0.59010   Biso      1.000     H          0.099243  
         H19       1.0000    0.61170   0.65110   0.79650   Biso      1.000     H          0.148327  
         H20       1.0000    0.61430   0.54000   0.76250   Biso      1.000     H          0.149557  
         H21       1.0000    0.16900   0.05640   0.40170   Biso      1.000     H          0.10844000000000001           
         H22       1.0000    0.21370   0.24830   0.61920   Biso      1.000     H          0.101186  
         H23       1.0000    0.01500   0.83390   0.44560   Biso      1.000     H          0.116     
         H24       1.0000    0.58311   0.71135   0.37944   Biso      1.000     H          0.118529  
         H25       1.0000    0.70908   0.22456   0.04495   Biso      1.000     H          0.11320699999999999           
         H26       1.0000    0.25220   0.44960   0.42710   Biso      1.000     H          0.10588099999999999           
         H27       1.0000    0.75700   0.42070   0.40140   Biso      1.000     H          0.150674  
         H28       1.0000    0.84500   0.32480   0.45970   Biso      1.000     H          0.144758  
         H29       1.0000    0.02300   0.26590   0.27120   Biso      1.000     H          0.110419  
         H30       1.0000    0.93430   0.37310   0.22100   Biso      1.000     H          0.118277  
         H31       1.0000    0.88390   0.76970   0.41000   Biso      1.000     H          0.100897  
         H32       1.0000    0.78630   0.75170   0.38080   Biso      1.000     H          0.10117000000000001           
         H33       1.0000    0.88770   0.18330   0.12100   Biso      1.000     H          0.396448  
         H34       1.0000    0.90550   0.77310   0.18310   Biso      1.000     H          0.16150699999999998           
         H35       1.0000    0.27590   0.32270   0.40990   Biso      1.000     H          0.099237  
         H36       1.0000    0.67180   0.88140   0.84200   Biso      1.000     H          0.11444100000000001           
         H37       1.0000    0.50680   0.87090   0.79680   Biso      1.000     H          0.129608  
         H38       1.0000    0.35720   0.96070   0.85830   Biso      1.000     H          0.13184500000000002           
         H39       1.0000    0.61680   0.93570   0.58610   Biso      1.000     H          0.11969400000000001           
         H40       1.0000    0.95320   0.98490   0.77780   Biso      1.000     H          0.121146  
         H41       1.0000    0.73420   0.22200   0.66980   Biso      1.000     H          0.145798  
         H42       1.0000    0.69500   0.11710   0.71260   Biso      1.000     H          0.125361  
         H43       1.0000    0.83100   0.94360   0.59830   Biso      1.000     H          0.10843299999999999           
         H44       1.0000    0.98500   0.16610   0.55440   Biso      1.000     H          0.11597400000000001           
         H45       1.0000    0.11230   0.81670   0.87900   Biso      1.000     H          0.396439  
         H46       1.0000    0.28580   0.07900   0.02030   Biso      1.000     H          0.120582  
         H47       1.0000    0.38830   0.34890   0.20350   Biso      1.000     H          0.148331  
         H48       1.0000    0.01070   0.78290   0.20800   Biso      1.000     H          0.14695899999999998           
         H49       1.0000    0.38570   0.46000   0.23750   Biso      1.000     H          0.149617  
         H50       1.0000    0.41689   0.28865   0.62056   Biso      1.000     H          0.118522  
         N1        1.0000    0.96210   0.61060   0.34080   Biso      1.000     N          -0.231819           
         N2        1.0000    0.53070   0.96820   0.27180   Biso      1.000     N          0.203512  
         N3        1.0000    0.60280   0.85180   0.25340   Biso      1.000     N          -0.26559499999999997          
         N4        1.0000    0.45370   0.89120   0.43610   Biso      1.000     N          -0.328231           
         N5        1.0000    0.00360   0.57880   0.68640   Biso      1.000     N          -0.232452           
         N6        1.0000    0.85550   0.55290   0.64600   Biso      1.000     N          -0.250364           
         N7        1.0000    0.03790   0.38940   0.65920   Biso      1.000     N          -0.23178800000000002          
         N8        1.0000    0.21420   0.86760   0.20210   Biso      1.000     N          0.195998  
         N9        1.0000    0.13640   0.92210   0.07390   Biso      1.000     N          -0.301686           
         N10       1.0000    0.29900   0.78640   0.11660   Biso      1.000     N          -0.272048           
         N11       1.0000    0.70100   0.21360   0.88340   Biso      1.000     N          -0.271266           
         N12       1.0000    0.14450   0.44710   0.35400   Biso      1.000     N          -0.250381           
         N13       1.0000    0.99640   0.42120   0.31360   Biso      1.000     N          -0.232456           
         N14       1.0000    0.54630   0.10880   0.56390   Biso      1.000     N          -0.328225           
         N15       1.0000    0.39720   0.14820   0.74660   Biso      1.000     N          -0.265703           
         N16       1.0000    0.46930   0.03180   0.72820   Biso      1.000     N          0.203505  
         N17       1.0000    0.86360   0.07790   0.92610   Biso      1.000     N          -0.300408           
         N18       1.0000    0.78580   0.13240   0.79790   Biso      1.000     N          0.196106  
         O1        1.0000    0.24080   0.02680   0.64590   Biso      1.000     O          -0.5536840000000001           
         O2        1.0000    0.82780   0.73410   0.66870   Biso      1.000     O          -0.493251           
         O3        1.0000    0.31850   0.74010   0.54900   Biso      1.000     O          -0.574232           
         O4        1.0000    0.14200   0.81560   0.70300   Biso      1.000     O          -0.524397           
         O5        1.0000    0.48620   0.77290   0.65230   Biso      1.000     O          -0.563066           
         O6        1.0000    0.89010   0.36800   0.62390   Biso      1.000     O          -0.484303           
         O7        1.0000    0.15110   0.00550   0.83490   Biso      1.000     O          -0.582009           
         O8        1.0000    0.17580   0.41710   0.70550   Biso      1.000     O          -0.463562           
         O9        1.0000    0.38330   0.68150   0.78860   Biso      1.000     O          -0.510375           
         O10       1.0000    0.94970   0.16780   0.05600   Biso      1.000     O          -0.653113           
         O11       1.0000    0.17220   0.26590   0.33130   Biso      1.000     O          -0.493277           
         O12       1.0000    0.10990   0.63200   0.37610   Biso      1.000     O          -0.484235           
         O13       1.0000    0.82420   0.58290   0.29450   Biso      1.000     O          -0.46356800000000004          
         O14       1.0000    0.75920   0.97320   0.35410   Biso      1.000     O          -0.553905           
         O15       1.0000    0.84890   0.99450   0.16510   Biso      1.000     O          -0.582334           
         O16       1.0000    0.61670   0.31850   0.21140   Biso      1.000     O          -0.510502           
         O17       1.0000    0.51380   0.22710   0.34770   Biso      1.000     O          -0.562909           
         O18       1.0000    0.85800   0.18440   0.29700   Biso      1.000     O          -0.5238689999999999           
         O19       1.0000    0.68150   0.25990   0.45100   Biso      1.000     O          -0.574435           
         O20       1.0000    0.05030   0.83220   0.94400   Biso      1.000     O          -0.6521100000000001           
         Zn1       1.0000    0.65823   0.14125   0.39387   Biso      1.000     Zn          0.853261  
         Zn2       1.0000    0.34177   0.85875   0.60613   Biso      1.000     Zn          0.853316  
         Zn3       1.0000    0.00000   0.00000   0.00000   Biso      1.000     Zn          0.947857 