
##########################################################################
#               Crystallographic Information Format file
#               Produced by PyCifRW module
#
#  This is a CIF file.  CIF has been adopted by the International
#  Union of Crystallography as the standard for data archiving and
#  transmission.
#
#  For information on this file format, follow the CIF links at
#  http://www.iucr.org
##########################################################################

data_image0

_cell_length_a                          7.0249
_cell_length_b                          7.0249
_cell_length_c                          19.936
_cell_angle_alpha                       90
_cell_angle_beta                        90
_cell_angle_gamma                       90
_symmetry_space_group_name_H-M          'P 1'
_symmetry_int_tables_number             1
loop_
  _symmetry_equiv_pos_as_xyz
         'x, y, z' 
loop_
  _atom_site_label
  _atom_site_occupancy
  _atom_site_fract_x
  _atom_site_fract_y
  _atom_site_fract_z
  _atom_site_thermal_displace_type
  _atom_site_B_iso_or_equiv
  _atom_site_type_symbol
  _atom_site_charge
         C1        1.0000    0.28100   0.24470   0.68810   Biso      1.000     C          0.554884  
         C2        1.0000    0.62950   0.60220   0.35740   Biso      1.000     C          0.152575  
         C3        1.0000    0.75530   0.71900   0.31190   Biso      1.000     C          0.554884  
         C4        1.0000    0.60220   0.62950   0.64260   Biso      1.000     C          0.152575  
         C5        1.0000    0.71900   0.75530   0.68810   Biso      1.000     C          0.554884  
         C6        1.0000    0.39870   0.36220   0.57310   Biso      1.000     C          -0.181035           
         C7        1.0000    0.39780   0.37050   0.64260   Biso      1.000     C          0.152576  
         C8        1.0000    0.13780   0.89870   0.07310   Biso      1.000     C          -0.181036           
         C9        1.0000    0.63780   0.60130   0.42690   Biso      1.000     C          -0.181035           
         C10       1.0000    0.12950   0.89780   0.14260   Biso      1.000     C          0.152575  
         C11       1.0000    0.86220   0.10130   0.07310   Biso      1.000     C          -0.181035           
         C12       1.0000    0.87050   0.10220   0.14260   Biso      1.000     C          0.152575  
         C13       1.0000    0.74470   0.21900   0.18810   Biso      1.000     C          0.554884  
         C14       1.0000    0.00000   0.00000   0.96260   Biso      1.000     C          0.117889  
         C15       1.0000    0.50000   0.50000   0.46260   Biso      1.000     C          0.117889  
         C16       1.0000    0.50000   0.50000   0.53740   Biso      1.000     C          0.117889  
         C17       1.0000    0.00000   0.00000   0.03740   Biso      1.000     C          0.117889  
         C18       1.0000    0.25530   0.78100   0.18810   Biso      1.000     C          0.554884  
         C19       1.0000    0.24470   0.28100   0.31190   Biso      1.000     C          0.554883  
         C20       1.0000    0.60130   0.63780   0.57310   Biso      1.000     C          -0.181034           
         C21       1.0000    0.36220   0.39870   0.42690   Biso      1.000     C          -0.181035           
         C22       1.0000    0.21900   0.74470   0.81190   Biso      1.000     C          0.554884  
         C23       1.0000    0.10220   0.87050   0.85740   Biso      1.000     C          0.152575  
         C24       1.0000    0.10130   0.86220   0.92690   Biso      1.000     C          -0.181034           
         C25       1.0000    0.78100   0.25530   0.81190   Biso      1.000     C          0.554884  
         C26       1.0000    0.89780   0.12950   0.85740   Biso      1.000     C          0.152575  
         C27       1.0000    0.89870   0.13780   0.92690   Biso      1.000     C          -0.181034           
         C28       1.0000    0.37050   0.39780   0.35740   Biso      1.000     C          0.152576  
         H1        1.0000    0.83300   0.23350   0.94930   Biso      1.000     H          0.145557  
         H2        1.0000    0.16700   0.76650   0.94930   Biso      1.000     H          0.145557  
         H3        1.0000    0.73350   0.66700   0.44930   Biso      1.000     H          0.145556  
         H4        1.0000    0.66700   0.73350   0.55070   Biso      1.000     H          0.145555  
         H5        1.0000    0.26650   0.33300   0.44930   Biso      1.000     H          0.145556  
         H6        1.0000    0.23350   0.83300   0.05070   Biso      1.000     H          0.145556  
         H7        1.0000    0.76650   0.16700   0.05070   Biso      1.000     H          0.145556  
         H8        1.0000    0.33300   0.26650   0.55070   Biso      1.000     H          0.145556  
         N1        1.0000    0.00000   0.00000   0.82480   Biso      1.000     N          -0.270537           
         N2        1.0000    0.50000   0.50000   0.32480   Biso      1.000     N          -0.270537           
         N3        1.0000    0.50000   0.50000   0.67520   Biso      1.000     N          -0.270538           
         N4        1.0000    0.00000   0.00000   0.17520   Biso      1.000     N          -0.270537           
         O1        1.0000    0.16390   0.13460   0.66035   Biso      1.000     O          -0.507793           
         O2        1.0000    0.86540   0.83610   0.33965   Biso      1.000     O          -0.507793           
         O3        1.0000    0.30580   0.26410   0.74955   Biso      1.000     O          -0.530568           
         O4        1.0000    0.36540   0.66390   0.16035   Biso      1.000     O          -0.507793           
         O5        1.0000    0.23590   0.80580   0.24955   Biso      1.000     O          -0.530567           
         O6        1.0000    0.69420   0.73590   0.74955   Biso      1.000     O          -0.530568           
         O7        1.0000    0.83610   0.86540   0.66035   Biso      1.000     O          -0.507793           
         O8        1.0000    0.73590   0.69420   0.25045   Biso      1.000     O          -0.530567           
         O9        1.0000    0.26410   0.30580   0.25045   Biso      1.000     O          -0.530567           
         O10       1.0000    0.76410   0.19420   0.24955   Biso      1.000     O          -0.530567           
         O11       1.0000    0.19420   0.76410   0.75045   Biso      1.000     O          -0.530567           
         O12       1.0000    0.33610   0.63460   0.83965   Biso      1.000     O          -0.507793           
         O13       1.0000    0.80580   0.23590   0.75045   Biso      1.000     O          -0.530567           
         O14       1.0000    0.66390   0.36540   0.83965   Biso      1.000     O          -0.507794           
         O15       1.0000    0.63460   0.33610   0.16035   Biso      1.000     O          -0.507793           
         O16       1.0000    0.13460   0.16390   0.33965   Biso      1.000     O          -0.507793           
         Zn1       1.0000    0.00000   0.00000   0.27597   Biso      1.000     Zn          0.885408  
         Zn2       1.0000    0.50000   0.50000   0.77597   Biso      1.000     Zn          0.885409  
         Zn3       1.0000    0.50000   0.50000   0.22403   Biso      1.000     Zn          0.885409  
         Zn4       1.0000    0.00000   0.00000   0.72403   Biso      1.000     Zn          0.885409 