
##########################################################################
#               Crystallographic Information Format file
#               Produced by PyCifRW module
#
#  This is a CIF file.  CIF has been adopted by the International
#  Union of Crystallography as the standard for data archiving and
#  transmission.
#
#  For information on this file format, follow the CIF links at
#  http://www.iucr.org
##########################################################################

data_image0

_cell_length_a                          13.0757
_cell_length_b                          14.1157
_cell_length_c                          16.6631
_cell_angle_alpha                       66.602
_cell_angle_beta                        87.138
_cell_angle_gamma                       89.757
_symmetry_space_group_name_H-M          'P 1'
_symmetry_int_tables_number             1
loop_
  _symmetry_equiv_pos_as_xyz
         'x, y, z' 
loop_
  _atom_site_label
  _atom_site_occupancy
  _atom_site_fract_x
  _atom_site_fract_y
  _atom_site_fract_z
  _atom_site_thermal_displace_type
  _atom_site_B_iso_or_equiv
  _atom_site_type_symbol
  _atom_site_charge
         C1        1.0000    0.22440   0.56130   0.20130   Biso      1.000     C          -0.105733           
         C2        1.0000    0.77240   0.86960   0.27590   Biso      1.000     C          -0.111705           
         C3        1.0000    0.55370   0.24430   0.61120   Biso      1.000     C          0.6341899999999999  
         C4        1.0000    0.29770   0.59080   0.23830   Biso      1.000     C          -0.129692           
         C5        1.0000    0.27420   0.45570   0.66810   Biso      1.000     C          0.631089  
         C6        1.0000    0.47590   0.32730   0.57700   Biso      1.000     C          -0.005411           
         C7        1.0000    0.41330   0.35180   0.63620   Biso      1.000     C          -0.153481           
         C8        1.0000    0.34010   0.42760   0.60460   Biso      1.000     C          -0.0072   
         C9        1.0000    0.32620   0.47640   0.51480   Biso      1.000     C          -0.250602           
         C10       1.0000    0.56220   0.08170   0.21390   Biso      1.000     C          0.5634939999999999  
         C11       1.0000    0.80050   0.35380   0.21880   Biso      1.000     C          0.582704  
         C12       1.0000    0.79990   0.81390   0.36860   Biso      1.000     C          0.0007379999999999999         
         C13       1.0000    0.65020   0.20780   0.07660   Biso      1.000     C          -0.21404600000000001          
         C14       1.0000    0.69950   0.92500   0.68400   Biso      1.000     C          0.584167  
         C15       1.0000    0.75000   0.30270   0.16840   Biso      1.000     C          -0.011746           
         C16       1.0000    0.76220   0.34210   0.07740   Biso      1.000     C          -0.284049           
         C17       1.0000    0.71150   0.29470   0.03150   Biso      1.000     C          0.269929  
         C18       1.0000    0.78430   0.41230   0.89350   Biso      1.000     C          0.007148000000000001          
         C19       1.0000    0.77560   0.43870   0.79870   Biso      1.000     C          -0.105733           
         C20       1.0000    0.70230   0.40920   0.76170   Biso      1.000     C          -0.129692           
         C21       1.0000    0.70400   0.43910   0.66480   Biso      1.000     C          -0.000248           
         C22       1.0000    0.53520   0.62240   0.51200   Biso      1.000     C          -0.202879           
         C23       1.0000    0.61160   0.54960   0.54280   Biso      1.000     C          0.267621  
         C24       1.0000    0.63720   0.16890   0.16730   Biso      1.000     C          0.018373  
         C25       1.0000    0.67380   0.52360   0.48520   Biso      1.000     C          -0.250602           
         C26       1.0000    0.73360   0.89550   0.54630   Biso      1.000     C          -0.233285           
         C27       1.0000    0.84710   0.76080   0.54410   Biso      1.000     C          -0.26605700000000004          
         C28       1.0000    0.84180   0.89710   0.20970   Biso      1.000     C          -0.123175           
         C29       1.0000    0.82050   0.95060   0.11550   Biso      1.000     C          -0.004296           
         C30       1.0000    0.82880   0.07890   0.93440   Biso      1.000     C          -0.23681  
         C31       1.0000    0.89440   0.09320   0.99170   Biso      1.000     C          0.272638  
         C32       1.0000    0.96760   0.17320   0.96060   Biso      1.000     C          -0.217338           
         C33       1.0000    0.97380   0.23890   0.87280   Biso      1.000     C          -0.012725           
         C34       1.0000    0.90850   0.22410   0.81480   Biso      1.000     C          -0.1603   
         C35       1.0000    0.83780   0.14360   0.84580   Biso      1.000     C          0.006215  
         C36       1.0000    0.04880   0.32840   0.84000   Biso      1.000     C          0.625009  
         C37       1.0000    0.76840   0.12570   0.78300   Biso      1.000     C          0.620582  
         C38       1.0000    0.77920   0.84000   0.50200   Biso      1.000     C          0.274803  
         C39       1.0000    0.21570   0.58770   0.10650   Biso      1.000     C          0.007148000000000001          
         C40       1.0000    0.23780   0.65790   0.92260   Biso      1.000     C          -0.284051           
         C41       1.0000    0.25000   0.69730   0.83160   Biso      1.000     C          -0.011743           
         C42       1.0000    0.31180   0.78440   0.78650   Biso      1.000     C          -0.133411           
         C43       1.0000    0.36280   0.83110   0.83270   Biso      1.000     C          0.018372  
         C44       1.0000    0.34980   0.79220   0.92340   Biso      1.000     C          -0.214044           
         C45       1.0000    0.19950   0.64620   0.78120   Biso      1.000     C          0.582704  
         C46       1.0000    0.43780   0.91830   0.78610   Biso      1.000     C          0.563495  
         C47       1.0000    0.75230   0.87000   0.63330   Biso      1.000     C          -0.013531999999999999         
         C48       1.0000    0.81780   0.79040   0.67700   Biso      1.000     C          -0.15705  
         C49       1.0000    0.86720   0.73750   0.63140   Biso      1.000     C          0.016158000000000002          
         C50       1.0000    0.28850   0.70530   0.96850   Biso      1.000     C          0.269929  
         C51       1.0000    0.65990   0.57240   0.39540   Biso      1.000     C          -0.007199           
         C52       1.0000    0.68820   0.21560   0.21350   Biso      1.000     C          -0.133409           
         C53       1.0000    0.52410   0.67270   0.42300   Biso      1.000     C          -0.005409000000000001         
         C54       1.0000    0.29600   0.56090   0.33520   Biso      1.000     C          -0.000248           
         C55       1.0000    0.46480   0.37760   0.48800   Biso      1.000     C          -0.202878           
         C56       1.0000    0.38840   0.45040   0.45720   Biso      1.000     C          0.26761999999999997           
         C57       1.0000    0.58670   0.64820   0.36380   Biso      1.000     C          -0.153481           
         C58       1.0000    0.23160   0.87430   0.21700   Biso      1.000     C          0.620582  
         C59       1.0000    0.95120   0.67160   0.16000   Biso      1.000     C          0.6250100000000001  
         C60       1.0000    0.16220   0.85640   0.15420   Biso      1.000     C          0.006214  
         C61       1.0000    0.09150   0.77590   0.18520   Biso      1.000     C          -0.160298           
         C62       1.0000    0.02620   0.76110   0.12720   Biso      1.000     C          -0.012726000000000001         
         C63       1.0000    0.03240   0.82680   0.03940   Biso      1.000     C          -0.217338           
         C64       1.0000    0.10560   0.90680   0.00830   Biso      1.000     C          0.27263699999999996           
         C65       1.0000    0.17120   0.92110   0.06560   Biso      1.000     C          -0.23681  
         C66       1.0000    0.17950   0.04940   0.88450   Biso      1.000     C          -0.0042899999999999995        
         C67       1.0000    0.94510   0.65860   0.67570   Biso      1.000     C          0.560018  
         C68       1.0000    0.30050   0.07500   0.31600   Biso      1.000     C          0.584167  
         C69       1.0000    0.15820   0.10290   0.79030   Biso      1.000     C          -0.123227           
         C70       1.0000    0.44630   0.75570   0.38880   Biso      1.000     C          0.6341899999999999  
         C71       1.0000    0.72580   0.54430   0.33190   Biso      1.000     C          0.631089  
         C72       1.0000    0.26640   0.10450   0.45370   Biso      1.000     C          -0.233285           
         C73       1.0000    0.22080   0.16000   0.49800   Biso      1.000     C          0.274804  
         C74       1.0000    0.22760   0.13040   0.72410   Biso      1.000     C          -0.111654           
         C75       1.0000    0.13280   0.26250   0.36860   Biso      1.000     C          0.016156999999999998          
         C76       1.0000    0.18220   0.20960   0.32300   Biso      1.000     C          -0.15705  
         C77       1.0000    0.24770   0.13000   0.36670   Biso      1.000     C          -0.01353  
         C78       1.0000    0.05490   0.34140   0.32430   Biso      1.000     C          0.560018  
         C79       1.0000    0.15290   0.23920   0.45590   Biso      1.000     C          -0.26605700000000004          
         C80       1.0000    0.20010   0.18610   0.63140   Biso      1.000     C          0.000734  
         H1        1.0000    0.23330   0.52720   0.09300   Biso      1.000     H          0.09342400000000001           
         H2        1.0000    0.42070   0.31700   0.69740   Biso      1.000     H          0.127664  
         H3        1.0000    0.27470   0.52670   0.49350   Biso      1.000     H          0.13330899999999998           
         H4        1.0000    0.50920   0.36260   0.44780   Biso      1.000     H          0.146672  
         H5        1.0000    0.30230   0.62310   0.34830   Biso      1.000     H          0.084409  
         H6        1.0000    0.23100   0.52450   0.36320   Biso      1.000     H          0.094086  
         H7        1.0000    0.35300   0.63220   0.20260   Biso      1.000     H          0.111449  
         H8        1.0000    0.17150   0.51850   0.23950   Biso      1.000     H          0.11036099999999999           
         H9        1.0000    0.08890   0.11870   0.77640   Biso      1.000     H          0.10105599999999999           
         H10       1.0000    0.19500   0.59890   0.95310   Biso      1.000     H          0.12107000000000001           
         H11       1.0000    0.31890   0.81170   0.72440   Biso      1.000     H          0.13153299999999998           
         H12       1.0000    0.38300   0.82550   0.95480   Biso      1.000     H          0.14469400000000002           
         H13       1.0000    0.17110   0.22780   0.26290   Biso      1.000     H          0.128904  
         H14       1.0000    0.70280   0.88590   0.26390   Biso      1.000     H          0.12233   
         H15       1.0000    0.25050   0.02380   0.89110   Biso      1.000     H          0.09585700000000001           
         H16       1.0000    0.17050   0.09700   0.91470   Biso      1.000     H          0.085011  
         H17       1.0000    0.22190   0.97460   0.04460   Biso      1.000     H          0.139175  
         H18       1.0000    0.98690   0.81750   0.00030   Biso      1.000     H          0.143343  
         H19       1.0000    0.08720   0.73110   0.24550   Biso      1.000     H          0.125806  
         H20       1.0000    0.14440   0.60700   0.09020   Biso      1.000     H          0.090848  
         H21       1.0000    0.87530   0.81160   0.37260   Biso      1.000     H          0.084811  
         H22       1.0000    0.91110   0.88130   0.22360   Biso      1.000     H          0.101053  
         H23       1.0000    0.68970   0.95090   0.51690   Biso      1.000     H          0.148502  
         H24       1.0000    0.61700   0.17450   0.04520   Biso      1.000     H          0.14469400000000002           
         H25       1.0000    0.68110   0.18830   0.27560   Biso      1.000     H          0.13153299999999998           
         H26       1.0000    0.80500   0.40110   0.04690   Biso      1.000     H          0.12107000000000001           
         H27       1.0000    0.85560   0.39300   0.90980   Biso      1.000     H          0.090848  
         H28       1.0000    0.76670   0.47280   0.90700   Biso      1.000     H          0.09342400000000001           
         H29       1.0000    0.82850   0.48150   0.76050   Biso      1.000     H          0.11036099999999999           
         H30       1.0000    0.64700   0.36780   0.79740   Biso      1.000     H          0.11145   
         H31       1.0000    0.76900   0.47550   0.63680   Biso      1.000     H          0.094085  
         H32       1.0000    0.69770   0.37690   0.65170   Biso      1.000     H          0.084409  
         H33       1.0000    0.49080   0.63740   0.55220   Biso      1.000     H          0.146672  
         H34       1.0000    0.72530   0.47330   0.50650   Biso      1.000     H          0.13330999999999998           
         H35       1.0000    0.57930   0.68300   0.30260   Biso      1.000     H          0.127664  
         H36       1.0000    0.29720   0.11410   0.73610   Biso      1.000     H          0.122326  
         H37       1.0000    0.12470   0.18840   0.62740   Biso      1.000     H          0.084811  
         H38       1.0000    0.31030   0.04910   0.48310   Biso      1.000     H          0.148503  
         H39       1.0000    0.12090   0.27660   0.48630   Biso      1.000     H          0.13007   
         H40       1.0000    0.91280   0.26890   0.75450   Biso      1.000     H          0.125806  
         H41       1.0000    0.01310   0.18250   0.99970   Biso      1.000     H          0.143343  
         H42       1.0000    0.77810   0.02540   0.95540   Biso      1.000     H          0.139175  
         H43       1.0000    0.82950   0.90300   0.08530   Biso      1.000     H          0.085011  
         H44       1.0000    0.74950   0.97620   0.10890   Biso      1.000     H          0.095858  
         H45       1.0000    0.82890   0.77220   0.73710   Biso      1.000     H          0.128904  
         H46       1.0000    0.87910   0.72340   0.51370   Biso      1.000     H          0.13007   
         H47       1.0000    0.77250   0.74220   0.39250   Biso      1.000     H          0.084977  
         H48       1.0000    0.22750   0.25780   0.60750   Biso      1.000     H          0.084977  
         O1        1.0000    0.54310   0.05190   0.29430   Biso      1.000     O          -0.538944           
         O2        1.0000    0.78500   0.17770   0.70270   Biso      1.000     O          -0.6061989999999999           
         O3        1.0000    0.18770   0.69280   0.70151   Biso      1.000     O          -0.476919           
         O4        1.0000    0.16681   0.55145   0.82187   Biso      1.000     O          -0.58928  
         O5        1.0000    0.28380   0.67200   0.05761   Biso      1.000     O          -0.1953   
         O6        1.0000    0.38180   0.49390   0.36764   Biso      1.000     O          -0.21273499999999998          
         O7        1.0000    0.29500   0.41850   0.74664   Biso      1.000     O          -0.6021989999999999           
         O8        1.0000    0.20160   0.51700   0.63714   Biso      1.000     O          -0.52685  
         O9        1.0000    0.62970   0.24540   0.56229   Biso      1.000     O          -0.560668           
         O10       1.0000    0.53520   0.17910   0.68908   Biso      1.000     O          -0.5359229999999999           
         O11       1.0000    0.95680   0.62940   0.75562   Biso      1.000     O          -0.542145           
         O12       1.0000    0.00040   0.62400   0.62799   Biso      1.000     O          -0.564418           
         O13       1.0000    0.67680   0.87710   0.76300   Biso      1.000     O          -0.463542           
         O14       1.0000    0.67520   0.02046   0.64374   Biso      1.000     O          -0.5946   
         O15       1.0000    0.89230   0.03480   0.07988   Biso      1.000     O          -0.202095           
         O16       1.0000    0.12090   0.32600   0.88741   Biso      1.000     O          -0.578566           
         O17       1.0000    0.03200   0.40010   0.76741   Biso      1.000     O          -0.521516           
         O18       1.0000    0.69890   0.05760   0.81709   Biso      1.000     O          -0.510047           
         O19       1.0000    0.75530   0.87010   0.41670   Biso      1.000     O          -0.189519           
         O20       1.0000    0.45690   0.94810   0.70570   Biso      1.000     O          -0.538945           
         O21       1.0000    0.24470   0.12990   0.58330   Biso      1.000     O          -0.189519           
         O22       1.0000    0.96800   0.59990   0.23259   Biso      1.000     O          -0.521516           
         O23       1.0000    0.87910   0.67400   0.11259   Biso      1.000     O          -0.578566           
         O24       1.0000    0.10770   0.96520   0.92012   Biso      1.000     O          -0.202094           
         O25       1.0000    0.32480   0.97954   0.35626   Biso      1.000     O          -0.5946   
         O26       1.0000    0.32320   0.12290   0.23700   Biso      1.000     O          -0.463542           
         O27       1.0000    0.99960   0.37600   0.37201   Biso      1.000     O          -0.564418           
         O28       1.0000    0.04320   0.37060   0.24438   Biso      1.000     O          -0.542144           
         O29       1.0000    0.46480   0.82090   0.31092   Biso      1.000     O          -0.535924           
         O30       1.0000    0.21500   0.82230   0.29730   Biso      1.000     O          -0.6061979999999999           
         O31       1.0000    0.37030   0.75460   0.43771   Biso      1.000     O          -0.560667           
         O32       1.0000    0.70500   0.58150   0.25336   Biso      1.000     O          -0.602198           
         O33       1.0000    0.61820   0.50610   0.63236   Biso      1.000     O          -0.21273499999999998          
         O34       1.0000    0.71620   0.32800   0.94239   Biso      1.000     O          -0.1953   
         O35       1.0000    0.83319   0.44855   0.17813   Biso      1.000     O          -0.589279           
         O36       1.0000    0.81230   0.30720   0.29849   Biso      1.000     O          -0.476919           
         O37       1.0000    0.51650   0.04350   0.16840   Biso      1.000     O          -0.5528   
         O38       1.0000    0.48350   0.95650   0.83160   Biso      1.000     O          -0.5528   
         O39       1.0000    0.79840   0.48300   0.36286   Biso      1.000     O          -0.52685  
         O40       1.0000    0.30110   0.94240   0.18291   Biso      1.000     O          -0.510048           
         Zn1       1.0000    0.40818   0.95917   0.25723   Biso      1.000     Zn          0.9343299999999999  
         Zn2       1.0000    0.74708   0.58992   0.12895   Biso      1.000     Zn          1.004031  
         Zn3       1.0000    0.90283   0.46107   0.28174   Biso      1.000     Zn          0.9199940000000001  
         Zn4       1.0000    0.25292   0.41008   0.87105   Biso      1.000     Zn          1.004033  
         Zn5       1.0000    0.76478   0.16630   0.58207   Biso      1.000     Zn          1.0264389999999999  
         Zn6       1.0000    0.09717   0.53893   0.71826   Biso      1.000     Zn          0.9199940000000001  
         Zn7       1.0000    0.59182   0.04083   0.74277   Biso      1.000     Zn          0.934328  
         Zn8       1.0000    0.23522   0.83370   0.41793   Biso      1.000     Zn          1.0264360000000001 