
##########################################################################
#               Crystallographic Information Format file
#               Produced by PyCifRW module
#
#  This is a CIF file.  CIF has been adopted by the International
#  Union of Crystallography as the standard for data archiving and
#  transmission.
#
#  For information on this file format, follow the CIF links at
#  http://www.iucr.org
##########################################################################

data_image0

_cell_length_a                          8.818
_cell_length_b                          10.2
_cell_length_c                          19.737
_cell_angle_alpha                       90
_cell_angle_beta                        102.4
_cell_angle_gamma                       90
_symmetry_space_group_name_H-M          'P 1'
_symmetry_int_tables_number             1
loop_
  _symmetry_equiv_pos_as_xyz
         'x, y, z' 
loop_
  _atom_site_label
  _atom_site_occupancy
  _atom_site_fract_x
  _atom_site_fract_y
  _atom_site_fract_z
  _atom_site_thermal_displace_type
  _atom_site_B_iso_or_equiv
  _atom_site_type_symbol
  _atom_site_charge
         Ba1       1.0000    0.65658   0.81035   0.96774   Biso      1.000     Ba          1.552947  
         Ba2       1.0000    0.34342   0.31035   0.53226   Biso      1.000     Ba          1.552889  
         Ba3       1.0000    0.34342   0.18965   0.03226   Biso      1.000     Ba          1.552902  
         Ba4       1.0000    0.65658   0.68965   0.46774   Biso      1.000     Ba          1.55295   
         C1        1.0000    0.51688   0.69601   0.76847   Biso      1.000     C          -0.287634           
         C2        1.0000    0.48546   0.57862   0.61956   Biso      1.000     C          0.663865  
         C3        1.0000    0.45528   0.71720   0.64289   Biso      1.000     C          -0.28281  
         C4        1.0000    0.00038   0.71524   0.61240   Biso      1.000     C          0.640844  
         C5        1.0000    0.96804   0.77035   0.67933   Biso      1.000     C          -0.279103           
         C6        1.0000    0.01204   0.70443   0.80158   Biso      1.000     C          -0.265876           
         C7        1.0000    0.92129   0.81430   0.82881   Biso      1.000     C          0.62893   
         C8        1.0000    0.20394   0.83707   0.76253   Biso      1.000     C          -0.126691           
         C9        1.0000    0.48312   0.19601   0.73153   Biso      1.000     C          -0.287633           
         C10       1.0000    0.46981   0.60336   0.82063   Biso      1.000     C          0.622331  
         C11       1.0000    0.51454   0.07862   0.88044   Biso      1.000     C          0.663864  
         C12       1.0000    0.54472   0.21720   0.85711   Biso      1.000     C          -0.2828   
         C13       1.0000    0.99962   0.21524   0.88760   Biso      1.000     C          0.640837  
         C14       1.0000    0.03196   0.27035   0.82067   Biso      1.000     C          -0.279093           
         C15       1.0000    0.98796   0.20443   0.69842   Biso      1.000     C          -0.265883           
         C16       1.0000    0.07871   0.31430   0.67119   Biso      1.000     C          0.628931  
         C17       1.0000    0.53019   0.10336   0.67937   Biso      1.000     C          0.622336  
         C18       1.0000    0.20394   0.66293   0.26253   Biso      1.000     C          -0.126709           
         C19       1.0000    0.92129   0.68570   0.32881   Biso      1.000     C          0.628892  
         C20       1.0000    0.69066   0.34404   0.78834   Biso      1.000     C          -0.109987           
         C21       1.0000    0.53019   0.39664   0.17937   Biso      1.000     C          0.622319  
         C22       1.0000    0.48312   0.30399   0.23153   Biso      1.000     C          -0.287628           
         C23       1.0000    0.51454   0.42138   0.38044   Biso      1.000     C          0.663863  
         C24       1.0000    0.54472   0.28280   0.35711   Biso      1.000     C          -0.282813           
         C25       1.0000    0.99962   0.28476   0.38760   Biso      1.000     C          0.640854  
         C26       1.0000    0.03196   0.22965   0.32067   Biso      1.000     C          -0.279125           
         C27       1.0000    0.98796   0.29557   0.19842   Biso      1.000     C          -0.265879           
         C28       1.0000    0.07871   0.18570   0.17119   Biso      1.000     C          0.628899  
         C29       1.0000    0.69066   0.15596   0.28834   Biso      1.000     C          -0.110007           
         C30       1.0000    0.79606   0.16293   0.23747   Biso      1.000     C          -0.126724           
         C31       1.0000    0.46981   0.89664   0.32063   Biso      1.000     C          0.622343  
         C32       1.0000    0.51688   0.80399   0.26847   Biso      1.000     C          -0.287627           
         C33       1.0000    0.48546   0.92138   0.11956   Biso      1.000     C          0.663873  
         C34       1.0000    0.45528   0.78280   0.14289   Biso      1.000     C          -0.282814           
         C35       1.0000    0.00038   0.78476   0.11240   Biso      1.000     C          0.640862  
         C36       1.0000    0.96804   0.72965   0.17933   Biso      1.000     C          -0.279091           
         C37       1.0000    0.01204   0.79557   0.30158   Biso      1.000     C          -0.265888           
         C38       1.0000    0.30934   0.65596   0.21166   Biso      1.000     C          -0.110007           
         C39       1.0000    0.79606   0.33707   0.73747   Biso      1.000     C          -0.126692           
         C40       1.0000    0.30934   0.84404   0.71166   Biso      1.000     C          -0.109984           
         Cu1       1.0000    0.76377   0.06618   0.79623   Biso      1.000     Cu          0.795345  
         Cu2       1.0000    0.23623   0.56618   0.70377   Biso      1.000     Cu          0.795361  
         Cu3       1.0000    0.23623   0.93382   0.20377   Biso      1.000     Cu          0.795556  
         Cu4       1.0000    0.76377   0.43382   0.29623   Biso      1.000     Cu          0.795533  
         H1        1.0000    0.73740   0.17980   0.18830   Biso      1.000     H          0.110841  
         H2        1.0000    0.85860   0.73950   0.67720   Biso      1.000     H          0.135018  
         H3        1.0000    0.94190   0.62750   0.80510   Biso      1.000     H          0.13092   
         H4        1.0000    0.09860   0.67550   0.84130   Biso      1.000     H          0.125647  
         H5        1.0000    0.24560   0.85740   0.66320   Biso      1.000     H          0.110017  
         H6        1.0000    0.38470   0.91940   0.72530   Biso      1.000     H          0.10837   
         H7        1.0000    0.13490   0.91670   0.75750   Biso      1.000     H          0.100089  
         H8        1.0000    0.26260   0.82020   0.81170   Biso      1.000     H          0.110856  
         H9        1.0000    0.39640   0.14860   0.74760   Biso      1.000     H          0.135411  
         H10       1.0000    0.42590   0.27610   0.70960   Biso      1.000     H          0.141021  
         H11       1.0000    0.05550   0.36710   0.82710   Biso      1.000     H          0.125749  
         H12       1.0000    0.62970   0.26040   0.89240   Biso      1.000     H          0.143921  
         H13       1.0000    0.94450   0.86710   0.67290   Biso      1.000     H          0.125755  
         H14       1.0000    0.14140   0.23950   0.82280   Biso      1.000     H          0.135012  
         H15       1.0000    0.05810   0.12750   0.69490   Biso      1.000     H          0.130921  
         H16       1.0000    0.90140   0.17550   0.65870   Biso      1.000     H          0.125647  
         H17       1.0000    0.75440   0.35740   0.83680   Biso      1.000     H          0.110017  
         H18       1.0000    0.60360   0.85140   0.25240   Biso      1.000     H          0.135431  
         H19       1.0000    0.86510   0.41670   0.74250   Biso      1.000     H          0.100087  
         H20       1.0000    0.73740   0.32020   0.68830   Biso      1.000     H          0.110855  
         H21       1.0000    0.44740   0.27200   0.84940   Biso      1.000     H          0.135281  
         H22       1.0000    0.37030   0.76040   0.60760   Biso      1.000     H          0.143928  
         H23       1.0000    0.61530   0.41940   0.77470   Biso      1.000     H          0.108367  
         H24       1.0000    0.57410   0.77610   0.79040   Biso      1.000     H          0.141024  
         H25       1.0000    0.86510   0.08330   0.24250   Biso      1.000     H          0.10006   
         H26       1.0000    0.61530   0.08060   0.27470   Biso      1.000     H          0.108379  
         H27       1.0000    0.75440   0.14260   0.33680   Biso      1.000     H          0.110024  
         H28       1.0000    0.90140   0.32450   0.15870   Biso      1.000     H          0.125617  
         H29       1.0000    0.05810   0.37250   0.19490   Biso      1.000     H          0.130876  
         H30       1.0000    0.14140   0.26050   0.32280   Biso      1.000     H          0.134994  
         H31       1.0000    0.05550   0.13290   0.32710   Biso      1.000     H          0.125706  
         H32       1.0000    0.62970   0.23960   0.39240   Biso      1.000     H          0.143935  
         H33       1.0000    0.44740   0.22800   0.34940   Biso      1.000     H          0.135297  
         H34       1.0000    0.42590   0.22390   0.20960   Biso      1.000     H          0.141044  
         H35       1.0000    0.39640   0.35140   0.24760   Biso      1.000     H          0.135418  
         H36       1.0000    0.57410   0.72390   0.29040   Biso      1.000     H          0.141056  
         H37       1.0000    0.37030   0.73960   0.10760   Biso      1.000     H          0.14395   
         H38       1.0000    0.94450   0.63290   0.17290   Biso      1.000     H          0.125722  
         H39       1.0000    0.85860   0.76050   0.17720   Biso      1.000     H          0.135     
         H40       1.0000    0.94190   0.87250   0.30510   Biso      1.000     H          0.130896  
         H41       1.0000    0.09860   0.82450   0.34130   Biso      1.000     H          0.125633  
         H42       1.0000    0.24560   0.64260   0.16320   Biso      1.000     H          0.110036  
         H43       1.0000    0.38470   0.58060   0.22530   Biso      1.000     H          0.108393  
         H44       1.0000    0.13490   0.58330   0.25750   Biso      1.000     H          0.100069  
         H45       1.0000    0.26260   0.67980   0.31170   Biso      1.000     H          0.110851  
         H46       1.0000    0.55260   0.77200   0.65060   Biso      1.000     H          0.135286  
         H47       1.0000    0.60360   0.64860   0.75240   Biso      1.000     H          0.135411  
         H48       1.0000    0.55260   0.72800   0.15060   Biso      1.000     H          0.135307  
         N1        1.0000    0.39048   0.78186   0.20616   Biso      1.000     N          -0.055274           
         N2        1.0000    0.91832   0.26300   0.25741   Biso      1.000     N          -0.092611           
         N3        1.0000    0.08168   0.76300   0.24259   Biso      1.000     N          -0.092614           
         N4        1.0000    0.60952   0.28186   0.29384   Biso      1.000     N          -0.055229           
         N5        1.0000    0.08168   0.73700   0.74259   Biso      1.000     N          -0.092289           
         N6        1.0000    0.60952   0.21814   0.79384   Biso      1.000     N          -0.055435           
         N7        1.0000    0.91832   0.23700   0.75741   Biso      1.000     N          -0.09228  
         N8        1.0000    0.39048   0.71814   0.70616   Biso      1.000     N          -0.055421           
         O1        1.0000    0.88211   0.70499   0.38514   Biso      1.000     O          -0.647807           
         O2        1.0000    0.89117   0.58530   0.29099   Biso      1.000     O          -0.539737           
         O3        1.0000    0.92015   0.74413   0.05745   Biso      1.000     O          -0.64142  
         O4        1.0000    0.10611   0.87093   0.11527   Biso      1.000     O          -0.558786           
         O5        1.0000    0.56523   0.93238   0.07588   Biso      1.000     O          -0.684671           
         O6        1.0000    0.42090   0.01453   0.14399   Biso      1.000     O          -0.65108  
         O7        1.0000    0.35264   0.96976   0.29929   Biso      1.000     O          -0.545582           
         O8        1.0000    0.11789   0.20499   0.11486   Biso      1.000     O          -0.647832           
         O9        1.0000    0.10883   0.08530   0.20901   Biso      1.000     O          -0.539766           
         O10       1.0000    0.07985   0.24413   0.44255   Biso      1.000     O          -0.641405           
         O11       1.0000    0.89389   0.37093   0.38473   Biso      1.000     O          -0.558774           
         O12       1.0000    0.43477   0.43238   0.42412   Biso      1.000     O          -0.684669           
         O13       1.0000    0.57910   0.51453   0.35601   Biso      1.000     O          -0.651101           
         O14       1.0000    0.55338   0.90039   0.37937   Biso      1.000     O          -0.637586           
         O15       1.0000    0.35264   0.53024   0.79929   Biso      1.000     O          -0.54557  
         O16       1.0000    0.42090   0.48547   0.64399   Biso      1.000     O          -0.651063           
         O17       1.0000    0.56523   0.56762   0.57588   Biso      1.000     O          -0.684703           
         O18       1.0000    0.10611   0.62907   0.61527   Biso      1.000     O          -0.558806           
         O19       1.0000    0.92015   0.75587   0.55745   Biso      1.000     O          -0.64137  
         O20       1.0000    0.89117   0.91470   0.79099   Biso      1.000     O          -0.539887           
         O21       1.0000    0.88211   0.79501   0.88514   Biso      1.000     O          -0.647726           
         O22       1.0000    0.64736   0.03024   0.70071   Biso      1.000     O          -0.545578           
         O23       1.0000    0.44662   0.09961   0.62063   Biso      1.000     O          -0.637597           
         O24       1.0000    0.57910   0.98547   0.85601   Biso      1.000     O          -0.651072           
         O25       1.0000    0.43477   0.06762   0.92412   Biso      1.000     O          -0.684715           
         O26       1.0000    0.89389   0.12907   0.88473   Biso      1.000     O          -0.558811           
         O27       1.0000    0.07985   0.25587   0.94255   Biso      1.000     O          -0.64138  
         O28       1.0000    0.10883   0.41470   0.70901   Biso      1.000     O          -0.539883           
         O29       1.0000    0.11789   0.29501   0.61486   Biso      1.000     O          -0.647712           
         O30       1.0000    0.44662   0.40039   0.12063   Biso      1.000     O          -0.637562           
         O31       1.0000    0.55338   0.59961   0.87937   Biso      1.000     O          -0.637587           
         O32       1.0000    0.64736   0.46976   0.20071   Biso      1.000     O          -0.545582 