
##########################################################################
#               Crystallographic Information Format file
#               Produced by PyCifRW module
#
#  This is a CIF file.  CIF has been adopted by the International
#  Union of Crystallography as the standard for data archiving and
#  transmission.
#
#  For information on this file format, follow the CIF links at
#  http://www.iucr.org
##########################################################################

data_image0

_cell_length_a                          12.7213
_cell_length_b                          12.7213
_cell_length_c                          20.709
_cell_angle_alpha                       84.16
_cell_angle_beta                        84.16
_cell_angle_gamma                       70.8696
_symmetry_space_group_name_H-M          'P 1'
_symmetry_int_tables_number             1
loop_
  _symmetry_equiv_pos_as_xyz
         'x, y, z' 
loop_
  _atom_site_label
  _atom_site_occupancy
  _atom_site_fract_x
  _atom_site_fract_y
  _atom_site_fract_z
  _atom_site_thermal_displace_type
  _atom_site_B_iso_or_equiv
  _atom_site_type_symbol
  _atom_site_charge
         C1        1.0000    0.25400   0.69440   0.88740   Biso      1.000     C          0.14641300000000002           
         C2        1.0000    0.66770   0.28010   0.96070   Biso      1.000     C          0.21801900000000002           
         C3        1.0000    0.67710   0.23250   0.89800   Biso      1.000     C          0.150452  
         C4        1.0000    0.76690   0.14130   0.88190   Biso      1.000     C          0.034986  
         C5        1.0000    0.15330   0.13030   0.36530   Biso      1.000     C          -0.042918           
         C6        1.0000    0.11040   0.09780   0.30680   Biso      1.000     C          0.584429  
         C7        1.0000    0.22260   0.19800   0.35350   Biso      1.000     C          -0.12602  
         C8        1.0000    0.69550   0.31170   0.05280   Biso      1.000     C          0.223757  
         C9        1.0000    0.74600   0.30560   0.11260   Biso      1.000     C          0.14641300000000002           
         C10       1.0000    0.85150   0.30250   0.21890   Biso      1.000     C          0.026883999999999998          
         C11       1.0000    0.75870   0.38850   0.20320   Biso      1.000     C          0.055514  
         C12       1.0000    0.83860   0.21540   0.12930   Biso      1.000     C          0.026387  
         C13       1.0000    0.90170   0.87650   0.07140   Biso      1.000     C          -0.128708           
         C14       1.0000    0.80050   0.76770   0.03160   Biso      1.000     C          -0.115922           
         C15       1.0000    0.76820   0.73780   0.09510   Biso      1.000     C          -0.020361           
         C16       1.0000    0.85580   0.30260   0.71440   Biso      1.000     C          0.021293  
         C17       1.0000    0.33210   0.30890   0.39370   Biso      1.000     C          0.574284  
         C18       1.0000    0.76330   0.39130   0.69920   Biso      1.000     C          0.049877  
         C19       1.0000    0.16280   0.13280   0.48080   Biso      1.000     C          -0.015968           
         C20       1.0000    0.23230   0.19950   0.46840   Biso      1.000     C          -0.115922           
         C21       1.0000    0.71990   0.33230   0.53930   Biso      1.000     C          0.21801700000000002           
         C22       1.0000    0.76750   0.32290   0.60200   Biso      1.000     C          0.150452  
         C23       1.0000    0.85870   0.23310   0.61810   Biso      1.000     C          0.034986  
         C24       1.0000    0.86970   0.84670   0.13470   Biso      1.000     C          -0.042918           
         C25       1.0000    0.90220   0.88960   0.19320   Biso      1.000     C          0.584429  
         C26       1.0000    0.80200   0.77740   0.14650   Biso      1.000     C          -0.12602  
         C27       1.0000    0.68830   0.30450   0.44720   Biso      1.000     C          0.223759  
         C28       1.0000    0.69440   0.25400   0.38740   Biso      1.000     C          0.14641300000000002           
         C29       1.0000    0.69750   0.14850   0.28110   Biso      1.000     C          0.026883999999999998          
         C30       1.0000    0.61150   0.24130   0.29680   Biso      1.000     C          0.055514  
         C31       1.0000    0.78460   0.16140   0.37070   Biso      1.000     C          0.026387  
         C32       1.0000    0.12850   0.10330   0.55040   Biso      1.000     C          0.549372  
         C33       1.0000    0.60870   0.23670   0.80080   Biso      1.000     C          0.049873  
         C34       1.0000    0.69740   0.14420   0.78560   Biso      1.000     C          0.021296000000000002          
         C35       1.0000    0.26220   0.23180   0.40490   Biso      1.000     C          -0.020361           
         C36       1.0000    0.12350   0.09830   0.42860   Biso      1.000     C          -0.128709           
         C37       1.0000    0.89670   0.87150   0.94960   Biso      1.000     C          0.549373  
         C38       1.0000    0.16140   0.78460   0.87070   Biso      1.000     C          0.026387  
         C39       1.0000    0.24130   0.61150   0.79680   Biso      1.000     C          0.055505  
         C40       1.0000    0.31170   0.69550   0.55280   Biso      1.000     C          0.22375799999999998           
         C41       1.0000    0.19800   0.22260   0.85350   Biso      1.000     C          -0.126019           
         C42       1.0000    0.09780   0.11040   0.80680   Biso      1.000     C          0.584429  
         C43       1.0000    0.13030   0.15330   0.86530   Biso      1.000     C          -0.042919           
         C44       1.0000    0.14130   0.76690   0.38190   Biso      1.000     C          0.034983999999999994          
         C45       1.0000    0.23250   0.67710   0.39800   Biso      1.000     C          0.150453  
         C46       1.0000    0.28010   0.66770   0.46070   Biso      1.000     C          0.218018  
         C47       1.0000    0.30890   0.33210   0.89370   Biso      1.000     C          0.574283  
         C48       1.0000    0.13280   0.16280   0.98080   Biso      1.000     C          -0.015968           
         C49       1.0000    0.09830   0.12350   0.92860   Biso      1.000     C          -0.128709           
         C50       1.0000    0.19950   0.23230   0.96840   Biso      1.000     C          -0.115922           
         C51       1.0000    0.23180   0.26220   0.90490   Biso      1.000     C          -0.020361           
         C52       1.0000    0.14420   0.69740   0.28560   Biso      1.000     C          0.021293  
         C53       1.0000    0.23670   0.60870   0.30080   Biso      1.000     C          0.049877  
         C54       1.0000    0.10330   0.12850   0.05040   Biso      1.000     C          0.549372  
         C55       1.0000    0.30560   0.74600   0.61260   Biso      1.000     C          0.14641300000000002           
         C56       1.0000    0.30250   0.85150   0.71890   Biso      1.000     C          0.026883999999999998          
         C57       1.0000    0.38850   0.75870   0.70320   Biso      1.000     C          0.055514  
         C58       1.0000    0.21540   0.83860   0.62930   Biso      1.000     C          0.026387  
         C59       1.0000    0.14850   0.69750   0.78110   Biso      1.000     C          0.026893  
         C60       1.0000    0.30450   0.68830   0.94720   Biso      1.000     C          0.223759  
         C61       1.0000    0.77740   0.80200   0.64650   Biso      1.000     C          -0.126019           
         C62       1.0000    0.88960   0.90220   0.69320   Biso      1.000     C          0.584429  
         C63       1.0000    0.84670   0.86970   0.63470   Biso      1.000     C          -0.042919           
         C64       1.0000    0.23310   0.85870   0.11810   Biso      1.000     C          0.034983999999999994          
         C65       1.0000    0.32290   0.76750   0.10200   Biso      1.000     C          0.150453  
         C66       1.0000    0.69110   0.66790   0.10630   Biso      1.000     C          0.574283  
         C67       1.0000    0.33230   0.71990   0.03930   Biso      1.000     C          0.218018  
         C68       1.0000    0.83720   0.86720   0.51920   Biso      1.000     C          -0.015968           
         C69       1.0000    0.87650   0.90170   0.57140   Biso      1.000     C          -0.128709           
         C70       1.0000    0.76770   0.80050   0.53160   Biso      1.000     C          -0.115922           
         C71       1.0000    0.73780   0.76820   0.59510   Biso      1.000     C          -0.020361           
         C72       1.0000    0.30260   0.85580   0.21440   Biso      1.000     C          0.021293  
         C73       1.0000    0.39130   0.76330   0.19920   Biso      1.000     C          0.049877  
         C74       1.0000    0.87150   0.89670   0.44960   Biso      1.000     C          0.549372  
         C75       1.0000    0.66790   0.69110   0.60630   Biso      1.000     C          0.574283  
         C76       1.0000    0.86720   0.83720   0.01920   Biso      1.000     C          -0.015969999999999998         
         Cd1       1.0000    0.06619   0.06901   0.17921   Biso      1.000     Cd          0.8636469999999999  
         Cd2       1.0000    0.54620   0.54618   0.10118   Biso      1.000     Cd          0.758659  
         Cd3       1.0000    0.93099   0.93381   0.32079   Biso      1.000     Cd          0.863648  
         Cd4       1.0000    0.45382   0.45380   0.39882   Biso      1.000     Cd          0.75866   
         Cd5       1.0000    0.93381   0.93099   0.82079   Biso      1.000     Cd          0.8636469999999999  
         Cd6       1.0000    0.45380   0.45382   0.89882   Biso      1.000     Cd          0.758662  
         Cd7       1.0000    0.06901   0.06619   0.67921   Biso      1.000     Cd          0.863648  
         Cd8       1.0000    0.54618   0.54620   0.60118   Biso      1.000     Cd          0.75866   
         H1        1.0000    0.11520   0.70220   0.24560   Biso      1.000     H          0.11638499999999999           
         H2        1.0000    0.69570   0.11290   0.24440   Biso      1.000     H          0.119781  
         H3        1.0000    0.55300   0.26820   0.26970   Biso      1.000     H          0.11520799999999999           
         H4        1.0000    0.84510   0.13690   0.39640   Biso      1.000     H          0.12943   
         H5        1.0000    0.55510   0.26810   0.77090   Biso      1.000     H          0.11733299999999999           
         H6        1.0000    0.25870   0.22210   0.50300   Biso      1.000     H          0.130473  
         H7        1.0000    0.07750   0.05410   0.43640   Biso      1.000     H          0.133355  
         H8        1.0000    0.73180   0.44700   0.23030   Biso      1.000     H          0.11520699999999999           
         H9        1.0000    0.24180   0.22000   0.31100   Biso      1.000     H          0.12600899999999998           
         H10       1.0000    0.88710   0.30430   0.25560   Biso      1.000     H          0.119781  
         H11       1.0000    0.78000   0.75820   0.18900   Biso      1.000     H          0.12600899999999998           
         H12       1.0000    0.86310   0.15490   0.10360   Biso      1.000     H          0.12943   
         H13       1.0000    0.26810   0.55510   0.27090   Biso      1.000     H          0.11733199999999999           
         H14       1.0000    0.82200   0.11180   0.91120   Biso      1.000     H          0.125066  
         H15       1.0000    0.88820   0.17800   0.58880   Biso      1.000     H          0.125066  
         H16       1.0000    0.70220   0.11520   0.74560   Biso      1.000     H          0.11638499999999999           
         H17       1.0000    0.77790   0.74130   0.99700   Biso      1.000     H          0.130473  
         H18       1.0000    0.22210   0.25870   0.00300   Biso      1.000     H          0.130473  
         H19       1.0000    0.05410   0.07750   0.93640   Biso      1.000     H          0.133355  
         H20       1.0000    0.11180   0.82200   0.41120   Biso      1.000     H          0.125066  
         H21       1.0000    0.22000   0.24180   0.81100   Biso      1.000     H          0.12600899999999998           
         H22       1.0000    0.94590   0.92250   0.06360   Biso      1.000     H          0.133355  
         H23       1.0000    0.44700   0.73180   0.73030   Biso      1.000     H          0.11520699999999999           
         H24       1.0000    0.15490   0.86310   0.60360   Biso      1.000     H          0.129431  
         H25       1.0000    0.44490   0.73190   0.22910   Biso      1.000     H          0.11733199999999999           
         H26       1.0000    0.29780   0.88480   0.25440   Biso      1.000     H          0.11638499999999999           
         H27       1.0000    0.30430   0.88710   0.75560   Biso      1.000     H          0.119781  
         H28       1.0000    0.92250   0.94590   0.56360   Biso      1.000     H          0.133355  
         H29       1.0000    0.17800   0.88820   0.08880   Biso      1.000     H          0.125066  
         H30       1.0000    0.75820   0.78000   0.68900   Biso      1.000     H          0.12600899999999998           
         H31       1.0000    0.11290   0.69570   0.74440   Biso      1.000     H          0.11978   
         H32       1.0000    0.26820   0.55300   0.76970   Biso      1.000     H          0.11520799999999999           
         H33       1.0000    0.13690   0.84510   0.89640   Biso      1.000     H          0.129431  
         H34       1.0000    0.73190   0.44490   0.72910   Biso      1.000     H          0.11733199999999999           
         H35       1.0000    0.74130   0.77790   0.49700   Biso      1.000     H          0.130473  
         H36       1.0000    0.88480   0.29780   0.75440   Biso      1.000     H          0.11638499999999999           
         N1        1.0000    0.39400   0.60440   0.96480   Biso      1.000     N          -0.204282           
         N2        1.0000    0.26220   0.76480   0.99170   Biso      1.000     N          -0.36746599999999996          
         N3        1.0000    0.41120   0.62340   0.02550   Biso      1.000     N          -0.20603600000000002          
         N4        1.0000    0.22190   0.90590   0.17300   Biso      1.000     N          -0.14518699999999998          
         N5        1.0000    0.40270   0.71750   0.14250   Biso      1.000     N          -0.222374           
         N6        1.0000    0.21410   0.89290   0.68140   Biso      1.000     N          -0.165526           
         N7        1.0000    0.23520   0.73780   0.50830   Biso      1.000     N          -0.36746599999999996          
         N8        1.0000    0.39560   0.60600   0.53520   Biso      1.000     N          -0.204282           
         N9        1.0000    0.37660   0.58880   0.47450   Biso      1.000     N          -0.20603600000000002          
         N10       1.0000    0.09410   0.77810   0.32700   Biso      1.000     N          -0.14518699999999998          
         N11       1.0000    0.29530   0.60770   0.84940   Biso      1.000     N          -0.234238           
         N12       1.0000    0.28250   0.59730   0.35750   Biso      1.000     N          -0.222374           
         N13       1.0000    0.39230   0.70470   0.65060   Biso      1.000     N          -0.23423899999999998          
         N14       1.0000    0.10710   0.78590   0.81860   Biso      1.000     N          -0.165527           
         N15       1.0000    0.58880   0.37660   0.97450   Biso      1.000     N          -0.20605199999999999          
         N16       1.0000    0.90590   0.22190   0.67300   Biso      1.000     N          -0.14518699999999998          
         N17       1.0000    0.71750   0.40270   0.64250   Biso      1.000     N          -0.222374           
         N18       1.0000    0.70470   0.39230   0.15060   Biso      1.000     N          -0.23423899999999998          
         N19       1.0000    0.60600   0.39560   0.03520   Biso      1.000     N          -0.204266           
         N20       1.0000    0.73780   0.23520   0.00830   Biso      1.000     N          -0.36746599999999996          
         N21       1.0000    0.77810   0.09410   0.82700   Biso      1.000     N          -0.145188           
         N22       1.0000    0.89290   0.21410   0.18140   Biso      1.000     N          -0.165526           
         N23       1.0000    0.78590   0.10710   0.31860   Biso      1.000     N          -0.165526           
         N24       1.0000    0.60770   0.29530   0.34940   Biso      1.000     N          -0.23423899999999998          
         N25       1.0000    0.60440   0.39400   0.46480   Biso      1.000     N          -0.204282           
         N26       1.0000    0.76480   0.26220   0.49170   Biso      1.000     N          -0.36746599999999996          
         N27       1.0000    0.62340   0.41120   0.52550   Biso      1.000     N          -0.20603600000000002          
         N28       1.0000    0.59730   0.28250   0.85750   Biso      1.000     N          -0.222374           
         O1        1.0000    0.94670   0.96450   0.68590   Biso      1.000     O          -0.602444           
         O2        1.0000    0.93790   0.95030   0.43670   Biso      1.000     O          -0.548034           
         O3        1.0000    0.64720   0.65560   0.66340   Biso      1.000     O          -0.5964109999999999           
         O4        1.0000    0.63340   0.66580   0.55720   Biso      1.000     O          -0.540828           
         O5        1.0000    0.13940   0.13640   0.75250   Biso      1.000     O          -0.541417           
         O6        1.0000    0.03550   0.05330   0.81410   Biso      1.000     O          -0.602444           
         O7        1.0000    0.04970   0.06210   0.06330   Biso      1.000     O          -0.548034           
         O8        1.0000    0.34440   0.35280   0.83660   Biso      1.000     O          -0.5964109999999999           
         O9        1.0000    0.86360   0.86060   0.74750   Biso      1.000     O          -0.541417           
         O10       1.0000    0.82980   0.86400   0.40480   Biso      1.000     O          -0.572867           
         O11       1.0000    0.86400   0.82980   0.90480   Biso      1.000     O          -0.572868           
         O12       1.0000    0.17020   0.13600   0.59520   Biso      1.000     O          -0.572867           
         O13       1.0000    0.65560   0.64720   0.16340   Biso      1.000     O          -0.5964109999999999           
         O14       1.0000    0.95030   0.93790   0.93670   Biso      1.000     O          -0.548034           
         O15       1.0000    0.96450   0.94670   0.18590   Biso      1.000     O          -0.602444           
         O16       1.0000    0.86060   0.86360   0.24750   Biso      1.000     O          -0.541417           
         O17       1.0000    0.36660   0.33420   0.44280   Biso      1.000     O          -0.540828           
         O18       1.0000    0.35280   0.34440   0.33660   Biso      1.000     O          -0.5964109999999999           
         O19       1.0000    0.06210   0.04970   0.56330   Biso      1.000     O          -0.548034           
         O20       1.0000    0.05330   0.03550   0.31410   Biso      1.000     O          -0.602444           
         O21       1.0000    0.13640   0.13940   0.25250   Biso      1.000     O          -0.541417           
         O22       1.0000    0.33420   0.36660   0.94280   Biso      1.000     O          -0.540828           
         O23       1.0000    0.66580   0.63340   0.05720   Biso      1.000     O          -0.540828           
         O24       1.0000    0.13600   0.17020   0.09520   Biso      1.000     O          -0.572868 