
##########################################################################
#               Crystallographic Information Format file
#               Produced by PyCifRW module
#
#  This is a CIF file.  CIF has been adopted by the International
#  Union of Crystallography as the standard for data archiving and
#  transmission.
#
#  For information on this file format, follow the CIF links at
#  http://www.iucr.org
##########################################################################

data_image0

_cell_length_a                          9.3993
_cell_length_b                          10.2783
_cell_length_c                          17.5516
_cell_angle_alpha                       103.055
_cell_angle_beta                        90
_cell_angle_gamma                       90
_symmetry_space_group_name_H-M          'P 1'
_symmetry_int_tables_number             1
loop_
  _symmetry_equiv_pos_as_xyz
         'x, y, z' 
loop_
  _atom_site_label
  _atom_site_occupancy
  _atom_site_fract_x
  _atom_site_fract_y
  _atom_site_fract_z
  _atom_site_thermal_displace_type
  _atom_site_B_iso_or_equiv
  _atom_site_type_symbol
  _atom_site_charge
         C1        1.0000    0.31260   0.15200   0.06425   Biso      1.000     C          0.166955  
         C2        1.0000    0.05470   0.50680   0.57403   Biso      1.000     C          -0.11380799999999999          
         C3        1.0000    0.92280   0.56220   0.56586   Biso      1.000     C          -0.012638           
         C4        1.0000    0.86800   0.55530   0.49129   Biso      1.000     C          -0.117078           
         C5        1.0000    0.11090   0.22490   0.11339   Biso      1.000     C          -0.10103  
         C6        1.0000    0.08940   0.18190   0.03465   Biso      1.000     C          0.124982  
         C7        1.0000    0.85620   0.06700   0.77436   Biso      1.000     C          0.27470900000000004           
         C8        1.0000    0.96710   0.12230   0.90602   Biso      1.000     C          -0.182247           
         C9        1.0000    0.96160   0.17400   0.98645   Biso      1.000     C          0.07301   
         C10       1.0000    0.83070   0.21760   0.02040   Biso      1.000     C          -0.137967           
         C11       1.0000    0.70910   0.20940   0.97484   Biso      1.000     C          -0.070643           
         C12       1.0000    0.34510   0.88510   0.64003   Biso      1.000     C          0.042872  
         C13       1.0000    0.83970   0.63190   0.63653   Biso      1.000     C          0.563592  
         C14       1.0000    0.21590   0.84180   0.60577   Biso      1.000     C          -0.135787           
         C15       1.0000    0.33070   0.78240   0.47960   Biso      1.000     C          -0.137967           
         C16       1.0000    0.46160   0.82600   0.51355   Biso      1.000     C          0.073011  
         C17       1.0000    0.46710   0.87770   0.59398   Biso      1.000     C          -0.18224500000000002          
         C18       1.0000    0.35620   0.93300   0.72564   Biso      1.000     C          0.27470700000000003           
         C19       1.0000    0.58940   0.81810   0.46535   Biso      1.000     C          0.124974  
         C20       1.0000    0.61090   0.77510   0.38661   Biso      1.000     C          -0.10102  
         C21       1.0000    0.81260   0.84800   0.43575   Biso      1.000     C          0.166956  
         C22       1.0000    0.36800   0.44470   0.00871   Biso      1.000     C          -0.117077           
         C23       1.0000    0.42280   0.43780   0.93414   Biso      1.000     C          -0.012638           
         C24       1.0000    0.55470   0.49320   0.92597   Biso      1.000     C          -0.113809           
         C25       1.0000    0.33970   0.36810   0.86347   Biso      1.000     C          0.563592  
         C26       1.0000    0.20910   0.79060   0.52516   Biso      1.000     C          -0.070643           
         C27       1.0000    0.65490   0.11490   0.35997   Biso      1.000     C          0.042872  
         C28       1.0000    0.78410   0.15820   0.39423   Biso      1.000     C          -0.135787           
         C29       1.0000    0.79090   0.20940   0.47484   Biso      1.000     C          -0.070645           
         C30       1.0000    0.16030   0.36810   0.36347   Biso      1.000     C          0.563592  
         C31       1.0000    0.94530   0.49320   0.42597   Biso      1.000     C          -0.11380799999999999          
         C32       1.0000    0.07720   0.43780   0.43414   Biso      1.000     C          -0.012639           
         C33       1.0000    0.13200   0.44470   0.50871   Biso      1.000     C          -0.117078           
         C34       1.0000    0.68740   0.84800   0.93575   Biso      1.000     C          0.166956  
         C35       1.0000    0.88910   0.77510   0.88661   Biso      1.000     C          -0.10103  
         C36       1.0000    0.91060   0.81810   0.96535   Biso      1.000     C          0.124982  
         C37       1.0000    0.14380   0.93300   0.22564   Biso      1.000     C          0.274708  
         C38       1.0000    0.03290   0.87770   0.09398   Biso      1.000     C          -0.182247           
         C39       1.0000    0.03840   0.82600   0.01355   Biso      1.000     C          0.07301   
         C40       1.0000    0.16930   0.78240   0.97960   Biso      1.000     C          -0.137967           
         C41       1.0000    0.29090   0.79060   0.02516   Biso      1.000     C          -0.070643           
         C42       1.0000    0.28410   0.84180   0.10577   Biso      1.000     C          -0.13578900000000002          
         C43       1.0000    0.15490   0.88510   0.14003   Biso      1.000     C          0.042876  
         C44       1.0000    0.66030   0.63190   0.13653   Biso      1.000     C          0.563593  
         C45       1.0000    0.44530   0.50680   0.07403   Biso      1.000     C          -0.11380799999999999          
         C46       1.0000    0.57720   0.56220   0.06586   Biso      1.000     C          -0.012639           
         C47       1.0000    0.63200   0.55530   0.99129   Biso      1.000     C          -0.117078           
         C48       1.0000    0.18740   0.15200   0.56425   Biso      1.000     C          0.166956  
         C49       1.0000    0.38910   0.22490   0.61339   Biso      1.000     C          -0.10103  
         C50       1.0000    0.41060   0.18190   0.53465   Biso      1.000     C          0.124983  
         C51       1.0000    0.64380   0.06700   0.27436   Biso      1.000     C          0.274708  
         C52       1.0000    0.53290   0.12230   0.40602   Biso      1.000     C          -0.18224500000000002          
         C53       1.0000    0.53840   0.17400   0.48645   Biso      1.000     C          0.07301   
         C54       1.0000    0.66930   0.21760   0.52040   Biso      1.000     C          -0.137964           
         C55       1.0000    0.84510   0.11490   0.85997   Biso      1.000     C          0.042874  
         C56       1.0000    0.71590   0.15820   0.89423   Biso      1.000     C          -0.135787           
         Cd1       1.0000    0.16105   0.22595   0.75020   Biso      1.000     Cd          0.827995  
         Cd2       1.0000    0.66105   0.77405   0.74980   Biso      1.000     Cd          0.827993  
         Cd3       1.0000    0.83895   0.77405   0.24980   Biso      1.000     Cd          0.827993  
         Cd4       1.0000    0.33895   0.22595   0.25020   Biso      1.000     Cd          0.827993  
         H1        1.0000    0.90830   0.48860   0.37630   Biso      1.000     H          0.11563699999999999           
         H2        1.0000    0.04110   0.26130   0.14950   Biso      1.000     H          0.136147  
         H3        1.0000    0.05350   0.09230   0.88260   Biso      1.000     H          0.112956  
         H4        1.0000    0.82500   0.25250   0.07400   Biso      1.000     H          0.121223  
         H5        1.0000    0.62240   0.23820   0.99820   Biso      1.000     H          0.10583900000000002           
         H6        1.0000    0.63430   0.15330   0.86380   Biso      1.000     H          0.117065  
         H7        1.0000    0.73960   0.89680   0.54370   Biso      1.000     H          0.279735  
         H8        1.0000    0.59170   0.48860   0.87630   Biso      1.000     H          0.11563699999999999           
         H9        1.0000    0.90800   0.87230   0.44110   Biso      1.000     H          0.085375  
         H10       1.0000    0.40800   0.12770   0.05890   Biso      1.000     H          0.085374  
         H11       1.0000    0.54110   0.73870   0.35050   Biso      1.000     H          0.136147  
         H12       1.0000    0.55350   0.90770   0.61740   Biso      1.000     H          0.112956  
         H13       1.0000    0.32500   0.74750   0.42600   Biso      1.000     H          0.121223  
         H14       1.0000    0.12240   0.76180   0.50180   Biso      1.000     H          0.10583900000000002           
         H15       1.0000    0.76040   0.89680   0.04370   Biso      1.000     H          0.279737  
         H16       1.0000    0.27960   0.40760   0.01460   Biso      1.000     H          0.11823099999999999           
         H17       1.0000    0.77960   0.59240   0.48540   Biso      1.000     H          0.11823099999999999           
         H18       1.0000    0.13430   0.84670   0.63620   Biso      1.000     H          0.11706400000000002           
         H19       1.0000    0.23960   0.10320   0.95630   Biso      1.000     H          0.27973600000000004           
         H20       1.0000    0.09170   0.51140   0.62370   Biso      1.000     H          0.11563699999999999           
         H21       1.0000    0.22040   0.40760   0.51460   Biso      1.000     H          0.11823099999999999           
         H22       1.0000    0.59200   0.87230   0.94110   Biso      1.000     H          0.085375  
         H23       1.0000    0.95890   0.73870   0.85050   Biso      1.000     H          0.136147  
         H24       1.0000    0.17500   0.74750   0.92600   Biso      1.000     H          0.121223  
         H25       1.0000    0.37760   0.76180   0.00180   Biso      1.000     H          0.10583900000000002           
         H26       1.0000    0.36570   0.84670   0.13620   Biso      1.000     H          0.117065  
         H27       1.0000    0.26040   0.10320   0.45630   Biso      1.000     H          0.279735  
         H28       1.0000    0.94650   0.90770   0.11740   Biso      1.000     H          0.11295699999999999           
         H29       1.0000    0.72040   0.59240   0.98540   Biso      1.000     H          0.11823099999999999           
         H30       1.0000    0.09200   0.12770   0.55890   Biso      1.000     H          0.085375  
         H31       1.0000    0.45890   0.26130   0.64950   Biso      1.000     H          0.136147  
         H32       1.0000    0.44650   0.09230   0.38260   Biso      1.000     H          0.112956  
         H33       1.0000    0.67500   0.25250   0.57400   Biso      1.000     H          0.121223  
         H34       1.0000    0.87760   0.23820   0.49820   Biso      1.000     H          0.10583900000000002           
         H35       1.0000    0.40830   0.51140   0.12370   Biso      1.000     H          0.11563699999999999           
         H36       1.0000    0.86570   0.15330   0.36380   Biso      1.000     H          0.11706400000000002           
         N1        1.0000    0.68510   0.97570   0.15481   Biso      1.000     N          -0.068139           
         N2        1.0000    0.72900   0.97960   0.22921   Biso      1.000     N          -0.287152           
         N3        1.0000    0.27960   0.13620   0.50477   Biso      1.000     N          -0.258262           
         N4        1.0000    0.24890   0.20650   0.63149   Biso      1.000     N          -0.279674           
         N5        1.0000    0.22900   0.02040   0.27079   Biso      1.000     N          -0.287167           
         N6        1.0000    0.07870   0.94470   0.34451   Biso      1.000     N          -0.087623           
         N7        1.0000    0.18510   0.02430   0.34519   Biso      1.000     N          -0.06808099999999999          
         N8        1.0000    0.77960   0.86380   0.99523   Biso      1.000     N          -0.258262           
         N9        1.0000    0.57870   0.05530   0.15549   Biso      1.000     N          -0.087576           
         N10       1.0000    0.74890   0.79350   0.86851   Biso      1.000     N          -0.279674           
         N11       1.0000    0.04890   0.88490   0.26934   Biso      1.000     N          -0.289916           
         N12       1.0000    0.54890   0.11510   0.23066   Biso      1.000     N          -0.289921           
         N13       1.0000    0.95110   0.11510   0.73066   Biso      1.000     N          -0.289933           
         N14       1.0000    0.22040   0.13620   0.00477   Biso      1.000     N          -0.258262           
         N15       1.0000    0.25110   0.20650   0.13149   Biso      1.000     N          -0.279674           
         N16       1.0000    0.42130   0.94470   0.84451   Biso      1.000     N          -0.087622           
         N17       1.0000    0.31490   0.02430   0.84519   Biso      1.000     N          -0.068092           
         N18       1.0000    0.27100   0.02040   0.77079   Biso      1.000     N          -0.287157           
         N19       1.0000    0.45110   0.88490   0.76934   Biso      1.000     N          -0.289916           
         N20       1.0000    0.75110   0.79350   0.36851   Biso      1.000     N          -0.279675           
         N21       1.0000    0.92130   0.05530   0.65549   Biso      1.000     N          -0.087605           
         N22       1.0000    0.81490   0.97570   0.65481   Biso      1.000     N          -0.068093           
         N23       1.0000    0.77100   0.97960   0.72921   Biso      1.000     N          -0.287157           
         N24       1.0000    0.72040   0.86380   0.49523   Biso      1.000     N          -0.258262           
         O1        1.0000    0.28160   0.32260   0.37395   Biso      1.000     O          -0.554403           
         O2        1.0000    0.21840   0.32260   0.87395   Biso      1.000     O          -0.554403           
         O3        1.0000    0.38990   0.35950   0.79744   Biso      1.000     O          -0.569998           
         O4        1.0000    0.71840   0.67740   0.62605   Biso      1.000     O          -0.554403           
         O5        1.0000    0.88990   0.64050   0.70256   Biso      1.000     O          -0.569998           
         O6        1.0000    0.78160   0.67740   0.12605   Biso      1.000     O          -0.554403           
         O7        1.0000    0.61010   0.64050   0.20256   Biso      1.000     O          -0.569998           
         O8        1.0000    0.11010   0.35950   0.29744   Biso      1.000     O          -0.569998 