
##########################################################################
#               Crystallographic Information Format file
#               Produced by PyCifRW module
#
#  This is a CIF file.  CIF has been adopted by the International
#  Union of Crystallography as the standard for data archiving and
#  transmission.
#
#  For information on this file format, follow the CIF links at
#  http://www.iucr.org
##########################################################################

data_image0

_cell_length_a                          10.2304
_cell_length_b                          10.5293
_cell_length_c                          13.0853
_cell_angle_alpha                       100.836
_cell_angle_beta                        90.736
_cell_angle_gamma                       113.42
_symmetry_space_group_name_H-M          'P 1'
_symmetry_int_tables_number             1
loop_
  _symmetry_equiv_pos_as_xyz
         'x, y, z' 
loop_
  _atom_site_label
  _atom_site_occupancy
  _atom_site_fract_x
  _atom_site_fract_y
  _atom_site_fract_z
  _atom_site_thermal_displace_type
  _atom_site_B_iso_or_equiv
  _atom_site_type_symbol
  _atom_site_charge
         C1        1.0000    0.33130   0.71760   0.82240   Biso      1.000     C          -0.094954           
         C2        1.0000    0.26670   0.37610   0.15940   Biso      1.000     C          -0.147563           
         C3        1.0000    0.21160   0.60510   0.24990   Biso      1.000     C          -0.076392           
         C4        1.0000    0.35010   0.46960   0.25080   Biso      1.000     C          -0.10413399999999999          
         C5        1.0000    0.32690   0.58930   0.29300   Biso      1.000     C          -0.042299           
         C6        1.0000    0.41980   0.69310   0.38580   Biso      1.000     C          0.596543  
         C7        1.0000    0.86760   0.48610   0.83950   Biso      1.000     C          -0.15015799999999999          
         C8        1.0000    0.08620   0.25300   0.41610   Biso      1.000     C          0.128386  
         C9        1.0000    0.99670   0.32490   0.43100   Biso      1.000     C          -0.145376           
         C10       1.0000    0.15640   0.39870   0.11270   Biso      1.000     C          0.09500700000000001           
         C11       1.0000    0.04650   0.45980   0.49170   Biso      1.000     C          0.123956  
         C12       1.0000    0.16120   0.78410   0.91860   Biso      1.000     C          0.09565   
         C13       1.0000    0.23520   0.69810   0.89970   Biso      1.000     C          -0.149767           
         C14       1.0000    0.35390   0.81990   0.76650   Biso      1.000     C          -0.047263           
         C15       1.0000    0.28220   0.90580   0.78910   Biso      1.000     C          -0.088619           
         C16       1.0000    0.18340   0.88450   0.86260   Biso      1.000     C          -0.14397000000000001          
         C17       1.0000    0.45610   0.84260   0.68080   Biso      1.000     C          0.6022529999999999  
         C18       1.0000    0.06400   0.77090   0.00680   Biso      1.000     C          0.03406   
         C19       1.0000    0.12330   0.93300   0.29660   Biso      1.000     C          0.579472  
         C20       1.0000    0.18130   0.51280   0.53840   Biso      1.000     C          -0.168825           
         C21       1.0000    0.04770   0.85290   0.19130   Biso      1.000     C          -0.001326           
         C22       1.0000    0.73650   0.56470   0.47850   Biso      1.000     C          0.090907  
         C23       1.0000    0.16280   0.30500   0.92510   Biso      1.000     C          -0.171374           
         C24       1.0000    0.13240   0.51390   0.16050   Biso      1.000     C          -0.150144           
         C25       1.0000    0.91380   0.74700   0.58390   Biso      1.000     C          0.128386  
         C26       1.0000    0.00330   0.67510   0.56900   Biso      1.000     C          -0.145376           
         C27       1.0000    0.95350   0.54020   0.50830   Biso      1.000     C          0.123955  
         C28       1.0000    0.81870   0.48720   0.46160   Biso      1.000     C          -0.168826           
         C29       1.0000    0.83880   0.21590   0.08140   Biso      1.000     C          0.09565   
         C30       1.0000    0.76480   0.30190   0.10030   Biso      1.000     C          -0.149768           
         C31       1.0000    0.66870   0.28240   0.17760   Biso      1.000     C          -0.094954           
         C32       1.0000    0.08150   0.30980   0.01040   Biso      1.000     C          0.020363  
         C33       1.0000    0.64610   0.18010   0.23350   Biso      1.000     C          -0.047264           
         C34       1.0000    0.81660   0.11550   0.13740   Biso      1.000     C          -0.14397100000000002          
         C35       1.0000    0.54390   0.15740   0.31920   Biso      1.000     C          0.6022529999999999  
         C36       1.0000    0.93600   0.22910   0.99320   Biso      1.000     C          0.03406   
         C37       1.0000    0.87230   0.14880   0.89410   Biso      1.000     C          -0.17559  
         C38       1.0000    0.87670   0.06700   0.70340   Biso      1.000     C          0.579472  
         C39       1.0000    0.95230   0.14710   0.80870   Biso      1.000     C          -0.001326           
         C40       1.0000    0.19500   0.21870   0.74200   Biso      1.000     C          0.6231720000000001  
         C41       1.0000    0.09900   0.22640   0.82530   Biso      1.000     C          -0.066014           
         C42       1.0000    0.71780   0.09420   0.21090   Biso      1.000     C          -0.088619           
         C43       1.0000    0.80500   0.78130   0.25800   Biso      1.000     C          0.623173  
         C44       1.0000    0.12770   0.85120   0.10590   Biso      1.000     C          -0.17558900000000002          
         C45       1.0000    0.83720   0.69500   0.07490   Biso      1.000     C          -0.171374           
         C46       1.0000    0.58020   0.30690   0.61420   Biso      1.000     C          0.596543  
         C47       1.0000    0.67310   0.41070   0.70700   Biso      1.000     C          -0.042302           
         C48       1.0000    0.64990   0.53040   0.74920   Biso      1.000     C          -0.10413299999999999          
         C49       1.0000    0.78840   0.39490   0.75010   Biso      1.000     C          -0.076383           
         C50       1.0000    0.90100   0.77360   0.17470   Biso      1.000     C          -0.066014           
         C51       1.0000    0.84360   0.60130   0.88730   Biso      1.000     C          0.095014  
         C52       1.0000    0.26350   0.43530   0.52150   Biso      1.000     C          0.090906  
         C53       1.0000    0.91850   0.69020   0.98960   Biso      1.000     C          0.020362  
         C54       1.0000    0.73330   0.62390   0.84060   Biso      1.000     C          -0.147565           
         H1        1.0000    0.94060   0.46890   0.86900   Biso      1.000     H          0.107351  
         H2        1.0000    0.05280   0.16420   0.37170   Biso      1.000     H          0.099726  
         H3        1.0000    0.90310   0.28150   0.39970   Biso      1.000     H          0.125039  
         H4        1.0000    0.21890   0.60210   0.58230   Biso      1.000     H          0.11901500000000001           
         H5        1.0000    0.22140   0.62830   0.93780   Biso      1.000     H          0.115434  
         H6        1.0000    0.38040   0.65940   0.80920   Biso      1.000     H          0.116     
         H7        1.0000    0.13170   0.94050   0.87330   Biso      1.000     H          0.117256  
         H8        1.0000    0.22600   0.90490   0.11520   Biso      1.000     H          0.13414700000000002           
         H9        1.0000    0.73840   0.64450   0.06470   Biso      1.000     H          0.12651600000000002           
         H10       1.0000    0.65230   0.67270   0.30860   Biso      1.000     H          0.405463  
         H11       1.0000    0.71460   0.70170   0.87020   Biso      1.000     H          0.120433  
         H12       1.0000    0.57950   0.54890   0.71730   Biso      1.000     H          0.115131  
         H13       1.0000    0.81260   0.32160   0.71810   Biso      1.000     H          0.12328   
         H14       1.0000    0.30000   0.97960   0.75450   Biso      1.000     H          0.114254  
         H15       1.0000    0.35700   0.47560   0.55280   Biso      1.000     H          0.09034400000000001           
         H16       1.0000    0.18740   0.67840   0.28190   Biso      1.000     H          0.12328099999999999           
         H17       1.0000    0.28540   0.29830   0.12980   Biso      1.000     H          0.120433  
         H18       1.0000    0.34770   0.32730   0.69140   Biso      1.000     H          0.405463  
         H19       1.0000    0.42050   0.45110   0.28270   Biso      1.000     H          0.115131  
         H20       1.0000    0.94720   0.83580   0.62830   Biso      1.000     H          0.099726  
         H21       1.0000    0.09690   0.71850   0.60030   Biso      1.000     H          0.125039  
         H22       1.0000    0.78110   0.39790   0.41770   Biso      1.000     H          0.11901500000000001           
         H23       1.0000    0.77860   0.37170   0.06220   Biso      1.000     H          0.115434  
         H24       1.0000    0.05940   0.53110   0.13100   Biso      1.000     H          0.10735   
         H25       1.0000    0.70000   0.02040   0.24550   Biso      1.000     H          0.114254  
         H26       1.0000    0.86830   0.05950   0.12670   Biso      1.000     H          0.117256  
         H27       1.0000    0.77400   0.09510   0.88480   Biso      1.000     H          0.13414700000000002           
         H28       1.0000    0.26160   0.35550   0.93530   Biso      1.000     H          0.12651600000000002           
         H29       1.0000    0.64300   0.52440   0.44720   Biso      1.000     H          0.09034400000000001           
         H30       1.0000    0.61960   0.34060   0.19080   Biso      1.000     H          0.116     
         N1        1.0000    0.21560   0.30750   0.46330   Biso      1.000     N          -0.213083           
         N2        1.0000    0.78440   0.69250   0.53670   Biso      1.000     N          -0.21308400000000002          
         O1        1.0000    0.89970   0.13780   0.63150   Biso      1.000     O          -0.5792510000000001           
         O2        1.0000    0.48480   0.95240   0.64590   Biso      1.000     O          -0.560758           
         O3        1.0000    0.53340   0.68430   0.41630   Biso      1.000     O          -0.570411           
         O4        1.0000    0.38150   0.79030   0.42860   Biso      1.000     O          -0.548579           
         O5        1.0000    0.79230   0.94130   0.69460   Biso      1.000     O          -0.5519310000000001           
         O6        1.0000    0.30370   0.33750   0.74200   Biso      1.000     O          -0.526932           
         O7        1.0000    0.17120   0.11080   0.67750   Biso      1.000     O          -0.504684           
         O8        1.0000    0.50370   0.74870   0.65100   Biso      1.000     O          -0.507521           
         O9        1.0000    0.51520   0.04760   0.35410   Biso      1.000     O          -0.560758           
         O10       1.0000    0.46660   0.31570   0.58370   Biso      1.000     O          -0.5704100000000001           
         O11       1.0000    0.10030   0.86220   0.36850   Biso      1.000     O          -0.5792510000000001           
         O12       1.0000    0.20770   0.05870   0.30540   Biso      1.000     O          -0.5519310000000001           
         O13       1.0000    0.69630   0.66250   0.25800   Biso      1.000     O          -0.526931           
         O14       1.0000    0.82880   0.88920   0.32250   Biso      1.000     O          -0.504684           
         O15       1.0000    0.49630   0.25130   0.34900   Biso      1.000     O          -0.50752  
         O16       1.0000    0.61850   0.20970   0.57140   Biso      1.000     O          -0.548579           
         Zn1       1.0000    0.50000   0.00000   0.50000   Biso      1.000     Zn          0.989188  
         Zn2       1.0000    0.65810   0.80476   0.56107   Biso      1.000     Zn          0.823011  
         Zn3       1.0000    0.34190   0.19524   0.43893   Biso      1.000     Zn          0.82301 