
##########################################################################
#               Crystallographic Information Format file
#               Produced by PyCifRW module
#
#  This is a CIF file.  CIF has been adopted by the International
#  Union of Crystallography as the standard for data archiving and
#  transmission.
#
#  For information on this file format, follow the CIF links at
#  http://www.iucr.org
##########################################################################

data_image0

_cell_length_a                          5.966
_cell_length_b                          19.0132
_cell_length_c                          19.0132
_cell_angle_alpha                       101.327
_cell_angle_beta                        97.7515
_cell_angle_gamma                       82.2485
_symmetry_space_group_name_H-M          'P 1'
_symmetry_int_tables_number             1
loop_
  _symmetry_equiv_pos_as_xyz
         'x, y, z' 
loop_
  _atom_site_label
  _atom_site_occupancy
  _atom_site_fract_x
  _atom_site_fract_y
  _atom_site_fract_z
  _atom_site_thermal_displace_type
  _atom_site_B_iso_or_equiv
  _atom_site_type_symbol
  _atom_site_charge
         C1        1.0000    0.35890   0.44760   0.90520   Biso      1.000     C          -0.502897           
         C2        1.0000    0.97390   0.94850   0.53590   Biso      1.000     C          -0.22525  
         C3        1.0000    0.84510   0.95160   0.46940   Biso      1.000     C          0.113327  
         C4        1.0000    0.87440   0.00670   0.43370   Biso      1.000     C          0.018252  
         C5        1.0000    0.72790   0.00340   0.23580   Biso      1.000     C          -0.09170299999999999          
         C6        1.0000    0.83680   0.99370   0.30170   Biso      1.000     C          -0.15073599999999998          
         C7        1.0000    0.74170   0.01440   0.36260   Biso      1.000     C          0.112409  
         C8        1.0000    0.52290   0.04290   0.35470   Biso      1.000     C          -0.149161           
         C9        1.0000    0.40160   0.05090   0.28910   Biso      1.000     C          -0.10598900000000001          
         C10       1.0000    0.64110   0.90520   0.44760   Biso      1.000     C          -0.502845           
         C11       1.0000    0.49930   0.02930   0.22850   Biso      1.000     C          -0.045076           
         C12       1.0000    0.62620   0.15700   0.03440   Biso      1.000     C          0.669675  
         C13       1.0000    0.50070   0.22850   0.02930   Biso      1.000     C          -0.045701           
         C14       1.0000    0.59840   0.28910   0.05090   Biso      1.000     C          -0.102246           
         C15       1.0000    0.47710   0.35470   0.04290   Biso      1.000     C          -0.144786           
         C16       1.0000    0.25830   0.36260   0.01440   Biso      1.000     C          0.11462699999999999           
         C17       1.0000    0.16320   0.30170   0.99370   Biso      1.000     C          -0.145672           
         C18       1.0000    0.27210   0.23580   0.00340   Biso      1.000     C          -0.093274           
         C19       1.0000    0.12560   0.43370   0.00670   Biso      1.000     C          0.017065  
         C20       1.0000    0.37380   0.03440   0.15700   Biso      1.000     C          0.665633  
         C21       1.0000    0.15490   0.46940   0.95160   Biso      1.000     C          0.11436099999999999           
         C22       1.0000    0.37380   0.84300   0.96560   Biso      1.000     C          0.669672  
         C23       1.0000    0.40160   0.71090   0.94910   Biso      1.000     C          -0.10228  
         C24       1.0000    0.35890   0.09480   0.55240   Biso      1.000     C          -0.502845           
         C25       1.0000    0.02610   0.05150   0.46410   Biso      1.000     C          -0.225214           
         C26       1.0000    0.15490   0.04840   0.53060   Biso      1.000     C          0.11332   
         C27       1.0000    0.12560   0.99330   0.56630   Biso      1.000     C          0.018284  
         C28       1.0000    0.27210   0.99660   0.76420   Biso      1.000     C          -0.09170299999999999          
         C29       1.0000    0.16320   0.00630   0.69830   Biso      1.000     C          -0.15073499999999998          
         C30       1.0000    0.25830   0.98560   0.63740   Biso      1.000     C          0.11240699999999999           
         C31       1.0000    0.47710   0.95710   0.64530   Biso      1.000     C          -0.14916  
         C32       1.0000    0.49930   0.77150   0.97070   Biso      1.000     C          -0.045668           
         C33       1.0000    0.59840   0.94910   0.71090   Biso      1.000     C          -0.10598900000000001          
         C34       1.0000    0.62620   0.96560   0.84300   Biso      1.000     C          0.665633  
         C35       1.0000    0.64110   0.55240   0.09480   Biso      1.000     C          -0.502897           
         C36       1.0000    0.97390   0.46410   0.05150   Biso      1.000     C          -0.224555           
         C37       1.0000    0.84510   0.53060   0.04840   Biso      1.000     C          0.11436199999999999           
         C38       1.0000    0.87440   0.56630   0.99330   Biso      1.000     C          0.017063  
         C39       1.0000    0.72790   0.76420   0.99660   Biso      1.000     C          -0.09328099999999999          
         C40       1.0000    0.83680   0.69830   0.00630   Biso      1.000     C          -0.145703           
         C41       1.0000    0.74170   0.63740   0.98560   Biso      1.000     C          0.114646  
         C42       1.0000    0.52290   0.64530   0.95710   Biso      1.000     C          -0.144764           
         C43       1.0000    0.50070   0.97070   0.77150   Biso      1.000     C          -0.045076           
         C44       1.0000    0.02610   0.53590   0.94850   Biso      1.000     C          -0.224554           
         H1        1.0000    0.83730   0.91805   0.01777   Biso      1.000     H          0.368715  
         H2        1.0000    0.16270   0.08195   0.98223   Biso      1.000     H          0.368715  
         H3        1.0000    0.50220   0.06350   0.54710   Biso      1.000     H          0.160928  
         H4        1.0000    0.75230   0.28730   0.07190   Biso      1.000     H          0.107699  
         H5        1.0000    0.55280   0.39690   0.05830   Biso      1.000     H          0.099993  
         H6        1.0000    0.01120   0.30410   0.97090   Biso      1.000     H          0.102272  
         H7        1.0000    0.19040   0.19480   0.99240   Biso      1.000     H          0.099187  
         H8        1.0000    0.04880   0.56100   0.91200   Biso      1.000     H          0.116503  
         H9        1.0000    0.34540   0.47880   0.86920   Biso      1.000     H          0.15904300000000002           
         H10       1.0000    0.50220   0.45290   0.93650   Biso      1.000     H          0.160321  
         H11       1.0000    0.35690   0.39720   0.88060   Biso      1.000     H          0.160518  
         H12       1.0000    0.35690   0.11940   0.60280   Biso      1.000     H          0.15878299999999998           
         H13       1.0000    0.44720   0.05830   0.39690   Biso      1.000     H          0.098979  
         H14       1.0000    0.98880   0.97090   0.30410   Biso      1.000     H          0.100733  
         H15       1.0000    0.80960   0.99240   0.19480   Biso      1.000     H          0.11304000000000002           
         H16       1.0000    0.95120   0.91200   0.56100   Biso      1.000     H          0.115902  
         H17       1.0000    0.65460   0.86920   0.47880   Biso      1.000     H          0.157588  
         H18       1.0000    0.49780   0.93650   0.45290   Biso      1.000     H          0.160928  
         H19       1.0000    0.24770   0.07190   0.28730   Biso      1.000     H          0.10656099999999999           
         H20       1.0000    0.24770   0.71270   0.92810   Biso      1.000     H          0.10770199999999999           
         H21       1.0000    0.64310   0.88060   0.39720   Biso      1.000     H          0.15878299999999998           
         H22       1.0000    0.04880   0.08800   0.43900   Biso      1.000     H          0.115899  
         H23       1.0000    0.19040   0.00760   0.80520   Biso      1.000     H          0.11304000000000002           
         H24       1.0000    0.01120   0.02910   0.69590   Biso      1.000     H          0.100733  
         H25       1.0000    0.55280   0.94170   0.60310   Biso      1.000     H          0.098979  
         H26       1.0000    0.75230   0.92810   0.71270   Biso      1.000     H          0.10656099999999999           
         H27       1.0000    0.34540   0.13080   0.52120   Biso      1.000     H          0.15758699999999998           
         H28       1.0000    0.49780   0.54710   0.06350   Biso      1.000     H          0.160321  
         H29       1.0000    0.65460   0.52120   0.13080   Biso      1.000     H          0.15904300000000002           
         H30       1.0000    0.95120   0.43900   0.08800   Biso      1.000     H          0.116503  
         H31       1.0000    0.80960   0.80520   0.00760   Biso      1.000     H          0.099187  
         H32       1.0000    0.98880   0.69590   0.02910   Biso      1.000     H          0.102275  
         H33       1.0000    0.44720   0.60310   0.94170   Biso      1.000     H          0.099992  
         H34       1.0000    0.64310   0.60280   0.11940   Biso      1.000     H          0.160518  
         O1        1.0000    0.83730   0.97169   0.02831   Biso      1.000     O          -0.8807530000000001           
         O2        1.0000    0.16270   0.02831   0.97169   Biso      1.000     O          -0.8807530000000001           
         O3        1.0000    0.82670   0.93960   0.84648   Biso      1.000     O          -0.5841350000000001           
         O4        1.0000    0.54030   0.98700   0.89620   Biso      1.000     O          -0.588973           
         O5        1.0000    0.17330   0.84648   0.93960   Biso      1.000     O          -0.581237           
         O6        1.0000    0.82670   0.15352   0.06040   Biso      1.000     O          -0.581238           
         O7        1.0000    0.17330   0.06040   0.15352   Biso      1.000     O          -0.5841350000000001           
         O8        1.0000    0.45970   0.01300   0.10380   Biso      1.000     O          -0.588973           
         O9        1.0000    0.54030   0.10380   0.01300   Biso      1.000     O          -0.583109           
         O10       1.0000    0.45970   0.89620   0.98700   Biso      1.000     O          -0.583109           
         Zn1       1.0000    0.00000   0.06012   0.06012   Biso      1.000     Zn          0.9880459999999999  
         Zn2       1.0000    0.00000   0.93988   0.93988   Biso      1.000     Zn          0.9880450000000001  
         Zn3       1.0000    0.50000   0.00000   0.00000   Biso      1.000     Zn          1.095819 