
##########################################################################
#               Crystallographic Information Format file
#               Produced by PyCifRW module
#
#  This is a CIF file.  CIF has been adopted by the International
#  Union of Crystallography as the standard for data archiving and
#  transmission.
#
#  For information on this file format, follow the CIF links at
#  http://www.iucr.org
##########################################################################

data_image0

_cell_length_a                          18.3666
_cell_length_b                          18.3666
_cell_length_c                          18.3666
_cell_angle_alpha                       60.0554
_cell_angle_beta                        60.0554
_cell_angle_gamma                       60.0554
_symmetry_space_group_name_H-M          'P 1'
_symmetry_int_tables_number             1
loop_
  _symmetry_equiv_pos_as_xyz
         'x, y, z' 
loop_
  _atom_site_label
  _atom_site_occupancy
  _atom_site_fract_x
  _atom_site_fract_y
  _atom_site_fract_z
  _atom_site_thermal_displace_type
  _atom_site_B_iso_or_equiv
  _atom_site_type_symbol
  _atom_site_charge
         C1        1.0000    0.62297   0.00537   0.62297   Biso      1.000     C          -0.103958           
         C2        1.0000    0.05864   0.56944   0.56944   Biso      1.000     C          -0.100682           
         C3        1.0000    0.13380   0.62300   0.62300   Biso      1.000     C          -0.106779           
         C4        1.0000    0.18742   0.56952   0.56952   Biso      1.000     C          -0.108175           
         C5        1.0000    0.64987   0.04259   0.64987   Biso      1.000     C          -0.018745           
         C6        1.0000    0.14931   0.54218   0.54218   Biso      1.000     C          -0.026946           
         C7        1.0000    0.20788   0.48444   0.48444   Biso      1.000     C          0.61687   
         C8        1.0000    0.70819   0.70819   0.98367   Biso      1.000     C          0.618211  
         C9        1.0000    0.64987   0.64987   0.04259   Biso      1.000     C          -0.018751           
         C10       1.0000    0.79182   0.79182   0.51583   Biso      1.000     C          0.612733  
         C11       1.0000    0.85008   0.85008   0.45758   Biso      1.000     C          -0.022685           
         C12       1.0000    0.95799   0.95799   0.34919   Biso      1.000     C          -0.02579  
         C13       1.0000    0.01585   0.01585   0.29170   Biso      1.000     C          0.61972   
         C14       1.0000    0.00537   0.62297   0.62297   Biso      1.000     C          -0.103959           
         C15       1.0000    0.79182   0.51583   0.79182   Biso      1.000     C          0.612733  
         C16       1.0000    0.95799   0.34919   0.95799   Biso      1.000     C          -0.025791           
         C17       1.0000    0.01585   0.29170   0.01585   Biso      1.000     C          0.619724  
         C18       1.0000    0.00429   0.13409   0.62459   Biso      1.000     C          -0.102902           
         C19       1.0000    0.45758   0.85008   0.85008   Biso      1.000     C          -0.022684           
         C20       1.0000    0.34919   0.95799   0.95799   Biso      1.000     C          -0.025791           
         C21       1.0000    0.29170   0.01585   0.01585   Biso      1.000     C          0.61972   
         C22       1.0000    0.79212   0.51556   0.51556   Biso      1.000     C          0.616872  
         C23       1.0000    0.85069   0.45782   0.45782   Biso      1.000     C          -0.026965           
         C24       1.0000    0.81258   0.43048   0.43048   Biso      1.000     C          -0.108176           
         C25       1.0000    0.86620   0.37700   0.37700   Biso      1.000     C          -0.106782           
         C26       1.0000    0.94136   0.43056   0.43056   Biso      1.000     C          -0.100665           
         C27       1.0000    0.99463   0.37703   0.37703   Biso      1.000     C          -0.103961           
         C28       1.0000    0.85008   0.45758   0.85008   Biso      1.000     C          -0.022681           
         C29       1.0000    0.95741   0.35013   0.35013   Biso      1.000     C          -0.01874  
         C30       1.0000    0.04259   0.64987   0.64987   Biso      1.000     C          -0.018745           
         C31       1.0000    0.18735   0.05805   0.57085   Biso      1.000     C          -0.103345           
         C32       1.0000    0.57085   0.05805   0.18735   Biso      1.000     C          -0.103343           
         C33       1.0000    0.62459   0.00429   0.13409   Biso      1.000     C          -0.102899           
         C34       1.0000    0.18735   0.57085   0.05805   Biso      1.000     C          -0.103346           
         C35       1.0000    0.13409   0.62459   0.00429   Biso      1.000     C          -0.102901           
         C36       1.0000    0.56944   0.05864   0.56944   Biso      1.000     C          -0.100681           
         C37       1.0000    0.62300   0.13380   0.62300   Biso      1.000     C          -0.10678  
         C38       1.0000    0.56952   0.18742   0.56952   Biso      1.000     C          -0.108176           
         C39       1.0000    0.54218   0.14931   0.54218   Biso      1.000     C          -0.026946           
         C40       1.0000    0.48444   0.20788   0.48444   Biso      1.000     C          0.61687   
         C41       1.0000    0.98415   0.70830   0.98415   Biso      1.000     C          0.619716  
         C42       1.0000    0.04201   0.65081   0.04201   Biso      1.000     C          -0.025786           
         C43       1.0000    0.14992   0.54242   0.14992   Biso      1.000     C          -0.022683           
         C44       1.0000    0.98367   0.70819   0.70819   Biso      1.000     C          0.618222  
         C45       1.0000    0.20818   0.48417   0.20818   Biso      1.000     C          0.612734  
         C46       1.0000    0.65081   0.04201   0.04201   Biso      1.000     C          -0.025789           
         C47       1.0000    0.54242   0.14992   0.14992   Biso      1.000     C          -0.02268  
         C48       1.0000    0.48417   0.20818   0.20818   Biso      1.000     C          0.612734  
         C49       1.0000    0.98415   0.98415   0.70830   Biso      1.000     C          0.61973   
         C50       1.0000    0.04201   0.04201   0.65081   Biso      1.000     C          -0.025787           
         C51       1.0000    0.14992   0.14992   0.54242   Biso      1.000     C          -0.022683           
         C52       1.0000    0.20818   0.20818   0.48417   Biso      1.000     C          0.612734  
         C53       1.0000    0.62459   0.13409   0.00429   Biso      1.000     C          -0.102899           
         C54       1.0000    0.57085   0.18735   0.05805   Biso      1.000     C          -0.103341           
         C55       1.0000    0.00429   0.62459   0.13409   Biso      1.000     C          -0.102903           
         C56       1.0000    0.05805   0.57085   0.18735   Biso      1.000     C          -0.103342           
         C57       1.0000    0.13409   0.00429   0.62459   Biso      1.000     C          -0.1029   
         C58       1.0000    0.70830   0.98415   0.98415   Biso      1.000     C          0.619727  
         C59       1.0000    0.01633   0.29181   0.29181   Biso      1.000     C          0.618212  
         C60       1.0000    0.51583   0.79182   0.79182   Biso      1.000     C          0.612734  
         C61       1.0000    0.45782   0.45782   0.85069   Biso      1.000     C          -0.026964           
         C62       1.0000    0.86591   0.37541   0.99571   Biso      1.000     C          -0.102897           
         C63       1.0000    0.81265   0.94195   0.42915   Biso      1.000     C          -0.103341           
         C64       1.0000    0.86591   0.99571   0.37541   Biso      1.000     C          -0.1029   
         C65       1.0000    0.94195   0.42915   0.81265   Biso      1.000     C          -0.103339           
         C66       1.0000    0.99571   0.37541   0.86591   Biso      1.000     C          -0.102897           
         C67       1.0000    0.42915   0.81265   0.94195   Biso      1.000     C          -0.10334  
         C68       1.0000    0.37541   0.86591   0.99571   Biso      1.000     C          -0.102899           
         C69       1.0000    0.51556   0.51556   0.79212   Biso      1.000     C          0.616872  
         C70       1.0000    0.62297   0.62297   0.00537   Biso      1.000     C          -0.103951           
         C71       1.0000    0.56944   0.56944   0.05864   Biso      1.000     C          -0.100685           
         C72       1.0000    0.62300   0.62300   0.13380   Biso      1.000     C          -0.10678  
         C73       1.0000    0.56952   0.56952   0.18742   Biso      1.000     C          -0.108177           
         C74       1.0000    0.54218   0.54218   0.14931   Biso      1.000     C          -0.026949           
         C75       1.0000    0.48444   0.48444   0.20788   Biso      1.000     C          0.61687   
         C76       1.0000    0.70819   0.98367   0.70819   Biso      1.000     C          0.618223  
         C77       1.0000    0.81265   0.42915   0.94195   Biso      1.000     C          -0.103338           
         C78       1.0000    0.37541   0.99571   0.86591   Biso      1.000     C          -0.1029   
         C79       1.0000    0.05805   0.18735   0.57085   Biso      1.000     C          -0.103342           
         C80       1.0000    0.99571   0.86591   0.37541   Biso      1.000     C          -0.102899           
         C81       1.0000    0.43048   0.43048   0.81258   Biso      1.000     C          -0.108176           
         C82       1.0000    0.37700   0.37700   0.86620   Biso      1.000     C          -0.106783           
         C83       1.0000    0.43056   0.43056   0.94136   Biso      1.000     C          -0.100665           
         C84       1.0000    0.37703   0.37703   0.99463   Biso      1.000     C          -0.103961           
         C85       1.0000    0.35013   0.35013   0.95741   Biso      1.000     C          -0.018741           
         C86       1.0000    0.29181   0.29181   0.01633   Biso      1.000     C          0.618212  
         C87       1.0000    0.42915   0.94195   0.81265   Biso      1.000     C          -0.10334  
         C88       1.0000    0.45782   0.85069   0.45782   Biso      1.000     C          -0.026967           
         C89       1.0000    0.51556   0.79212   0.51556   Biso      1.000     C          0.616873  
         C90       1.0000    0.94195   0.81265   0.42915   Biso      1.000     C          -0.10334  
         C91       1.0000    0.29181   0.01633   0.29181   Biso      1.000     C          0.618216  
         C92       1.0000    0.35013   0.95741   0.35013   Biso      1.000     C          -0.018748           
         C93       1.0000    0.37703   0.99463   0.37703   Biso      1.000     C          -0.103953           
         C94       1.0000    0.43056   0.94136   0.43056   Biso      1.000     C          -0.100668           
         C95       1.0000    0.37700   0.86620   0.37700   Biso      1.000     C          -0.106783           
         C96       1.0000    0.43048   0.81258   0.43048   Biso      1.000     C          -0.108178           
         H1        1.0000    0.96810   0.44800   0.44800   Biso      1.000     H          0.121195  
         H2        1.0000    0.64310   0.16040   0.94270   Biso      1.000     H          0.122882  
         H3        1.0000    0.55380   0.24910   0.03180   Biso      1.000     H          0.116366  
         H4        1.0000    0.94270   0.64310   0.16040   Biso      1.000     H          0.122881  
         H5        1.0000    0.03180   0.55380   0.24910   Biso      1.000     H          0.116366  
         H6        1.0000    0.16040   0.94270   0.64310   Biso      1.000     H          0.122881  
         H7        1.0000    0.24910   0.03180   0.55380   Biso      1.000     H          0.116366  
         H8        1.0000    0.94380   0.64060   0.64060   Biso      1.000     H          0.114947  
         H9        1.0000    0.24920   0.55180   0.55180   Biso      1.000     H          0.120274  
         H10       1.0000    0.16000   0.64080   0.64080   Biso      1.000     H          0.121238  
         H11       1.0000    0.03180   0.24910   0.55380   Biso      1.000     H          0.116365  
         H12       1.0000    0.64060   0.64060   0.94380   Biso      1.000     H          0.114946  
         H13       1.0000    0.55200   0.55200   0.03190   Biso      1.000     H          0.121197  
         H14       1.0000    0.64080   0.64080   0.16000   Biso      1.000     H          0.121237  
         H15       1.0000    0.55180   0.55180   0.24920   Biso      1.000     H          0.120273  
         H16       1.0000    0.64060   0.94380   0.64060   Biso      1.000     H          0.114948  
         H17       1.0000    0.55200   0.03190   0.55200   Biso      1.000     H          0.121198  
         H18       1.0000    0.64080   0.16000   0.64080   Biso      1.000     H          0.121237  
         H19       1.0000    0.55180   0.24920   0.55180   Biso      1.000     H          0.120273  
         H20       1.0000    0.03190   0.55200   0.55200   Biso      1.000     H          0.121198  
         H21       1.0000    0.94270   0.16040   0.64310   Biso      1.000     H          0.122881  
         H22       1.0000    0.64310   0.94270   0.16040   Biso      1.000     H          0.122882  
         H23       1.0000    0.84000   0.35920   0.35920   Biso      1.000     H          0.121235  
         H24       1.0000    0.05620   0.35940   0.35940   Biso      1.000     H          0.114948  
         H25       1.0000    0.44820   0.44820   0.75080   Biso      1.000     H          0.120272  
         H26       1.0000    0.35920   0.35920   0.84000   Biso      1.000     H          0.121235  
         H27       1.0000    0.44800   0.44800   0.96810   Biso      1.000     H          0.121195  
         H28       1.0000    0.35940   0.35940   0.05620   Biso      1.000     H          0.114948  
         H29       1.0000    0.44820   0.75080   0.44820   Biso      1.000     H          0.120271  
         H30       1.0000    0.35920   0.84000   0.35920   Biso      1.000     H          0.121235  
         H31       1.0000    0.44800   0.96810   0.44800   Biso      1.000     H          0.121194  
         H32       1.0000    0.35940   0.05620   0.35940   Biso      1.000     H          0.114946  
         H33       1.0000    0.96820   0.75090   0.44620   Biso      1.000     H          0.116367  
         H34       1.0000    0.05730   0.83960   0.35690   Biso      1.000     H          0.122882  
         H35       1.0000    0.75080   0.44820   0.44820   Biso      1.000     H          0.120272  
         H36       1.0000    0.35690   0.05730   0.83960   Biso      1.000     H          0.122881  
         H37       1.0000    0.75090   0.44620   0.96820   Biso      1.000     H          0.116368  
         H38       1.0000    0.83960   0.35690   0.05730   Biso      1.000     H          0.122883  
         H39       1.0000    0.75090   0.96820   0.44620   Biso      1.000     H          0.116367  
         H40       1.0000    0.83960   0.05730   0.35690   Biso      1.000     H          0.122881  
         H41       1.0000    0.96820   0.44620   0.75090   Biso      1.000     H          0.116368  
         H42       1.0000    0.05730   0.35690   0.83960   Biso      1.000     H          0.122882  
         H43       1.0000    0.44620   0.75090   0.96820   Biso      1.000     H          0.116367  
         H44       1.0000    0.35690   0.83960   0.05730   Biso      1.000     H          0.122882  
         H45       1.0000    0.16040   0.64310   0.94270   Biso      1.000     H          0.122881  
         H46       1.0000    0.24910   0.55380   0.03180   Biso      1.000     H          0.116366  
         H47       1.0000    0.55380   0.03180   0.24910   Biso      1.000     H          0.116367  
         H48       1.0000    0.44620   0.96820   0.75090   Biso      1.000     H          0.116367  
         O1        1.0000    0.15433   0.15433   0.15433   Biso      1.000     O          -1.041235           
         O2        1.0000    0.02275   0.73025   0.90185   Biso      1.000     O          -0.549368           
         O3        1.0000    0.73003   0.02282   0.73003   Biso      1.000     O          -0.551349           
         O4        1.0000    0.72981   0.90185   0.72981   Biso      1.000     O          -0.541138           
         O5        1.0000    0.46249   0.29027   0.46249   Biso      1.000     O          -0.548842           
         O6        1.0000    0.46224   0.16903   0.46224   Biso      1.000     O          -0.552547           
         O7        1.0000    0.73003   0.73003   0.02282   Biso      1.000     O          -0.551329           
         O8        1.0000    0.72981   0.72981   0.90185   Biso      1.000     O          -0.541146           
         O9        1.0000    0.46249   0.46249   0.29027   Biso      1.000     O          -0.548843           
         O10       1.0000    0.46224   0.46224   0.16903   Biso      1.000     O          -0.552549           
         O11       1.0000    0.02282   0.73003   0.73003   Biso      1.000     O          -0.55135  
         O12       1.0000    0.90185   0.72981   0.72981   Biso      1.000     O          -0.541138           
         O13       1.0000    0.29027   0.46249   0.46249   Biso      1.000     O          -0.548842           
         O14       1.0000    0.02275   0.90185   0.73025   Biso      1.000     O          -0.54937  
         O15       1.0000    0.16929   0.29099   0.46169   Biso      1.000     O          -0.542719           
         O16       1.0000    0.90185   0.73025   0.02275   Biso      1.000     O          -0.549342           
         O17       1.0000    0.29099   0.46169   0.16929   Biso      1.000     O          -0.542718           
         O18       1.0000    0.73025   0.02275   0.90185   Biso      1.000     O          -0.549359           
         O19       1.0000    0.46169   0.16929   0.29099   Biso      1.000     O          -0.542716           
         O20       1.0000    0.90185   0.02275   0.73025   Biso      1.000     O          -0.549369           
         O21       1.0000    0.29099   0.16929   0.46169   Biso      1.000     O          -0.542717           
         O22       1.0000    0.73025   0.90185   0.02275   Biso      1.000     O          -0.549356           
         O23       1.0000    0.46169   0.29099   0.16929   Biso      1.000     O          -0.542717           
         O24       1.0000    0.16929   0.46169   0.29099   Biso      1.000     O          -0.542718           
         O25       1.0000    0.16903   0.46224   0.46224   Biso      1.000     O          -0.552547           
         O26       1.0000    0.84567   0.84567   0.84567   Biso      1.000     O          -1.041275           
         O27       1.0000    0.53776   0.83097   0.53776   Biso      1.000     O          -0.552552           
         O28       1.0000    0.70901   0.53831   0.83071   Biso      1.000     O          -0.542715           
         O29       1.0000    0.09815   0.26975   0.97725   Biso      1.000     O          -0.549343           
         O30       1.0000    0.83071   0.70901   0.53831   Biso      1.000     O          -0.542717           
         O31       1.0000    0.97725   0.09815   0.26975   Biso      1.000     O          -0.549331           
         O32       1.0000    0.83071   0.53831   0.70901   Biso      1.000     O          -0.542716           
         O33       1.0000    0.97725   0.26975   0.09815   Biso      1.000     O          -0.549343           
         O34       1.0000    0.53831   0.70901   0.83071   Biso      1.000     O          -0.542717           
         O35       1.0000    0.26975   0.09815   0.97725   Biso      1.000     O          -0.549331           
         O36       1.0000    0.70901   0.83071   0.53831   Biso      1.000     O          -0.542717           
         O37       1.0000    0.09815   0.97725   0.26975   Biso      1.000     O          -0.549357           
         O38       1.0000    0.53751   0.70973   0.53751   Biso      1.000     O          -0.548844           
         O39       1.0000    0.27019   0.09815   0.27019   Biso      1.000     O          -0.541158           
         O40       1.0000    0.26997   0.97718   0.26997   Biso      1.000     O          -0.55134  
         O41       1.0000    0.26975   0.97725   0.09815   Biso      1.000     O          -0.549357           
         O42       1.0000    0.53776   0.53776   0.83097   Biso      1.000     O          -0.55255  
         O43       1.0000    0.27019   0.27019   0.09815   Biso      1.000     O          -0.541145           
         O44       1.0000    0.53751   0.53751   0.70973   Biso      1.000     O          -0.548842           
         O45       1.0000    0.65368   0.65368   0.65368   Biso      1.000     O          -1.039702           
         O46       1.0000    0.97718   0.26997   0.26997   Biso      1.000     O          -0.551328           
         O47       1.0000    0.09815   0.27019   0.27019   Biso      1.000     O          -0.541145           
         O48       1.0000    0.34632   0.34632   0.34632   Biso      1.000     O          -1.039702           
         O49       1.0000    0.70973   0.53751   0.53751   Biso      1.000     O          -0.548842           
         O50       1.0000    0.83097   0.53776   0.53776   Biso      1.000     O          -0.552551           
         O51       1.0000    0.26997   0.26997   0.97718   Biso      1.000     O          -0.551328           
         O52       1.0000    0.53831   0.83071   0.70901   Biso      1.000     O          -0.542717           
         Zn1       1.0000    0.61011   0.61011   0.61011   Biso      1.000     Zn          0.973746  
         Zn2       1.0000    0.02347   0.19741   0.19740   Biso      1.000     Zn          0.965223  
         Zn3       1.0000    0.78424   0.61047   0.61047   Biso      1.000     Zn          0.960569  
         Zn4       1.0000    0.19740   0.19741   0.02347   Biso      1.000     Zn          0.965223  
         Zn5       1.0000    0.61047   0.61047   0.78424   Biso      1.000     Zn          0.960569  
         Zn6       1.0000    0.19740   0.02347   0.19740   Biso      1.000     Zn          0.96528   
         Zn7       1.0000    0.19754   0.19754   0.19754   Biso      1.000     Zn          0.971415  
         Zn8       1.0000    0.38989   0.38989   0.38989   Biso      1.000     Zn          0.973746  
         Zn9       1.0000    0.21576   0.38953   0.38953   Biso      1.000     Zn          0.960568  
         Zn10      1.0000    0.97653   0.80259   0.80259   Biso      1.000     Zn          0.965316  
         Zn11      1.0000    0.38953   0.38953   0.21576   Biso      1.000     Zn          0.960568  
         Zn12      1.0000    0.80259   0.80260   0.97653   Biso      1.000     Zn          0.965257  
         Zn13      1.0000    0.38953   0.21576   0.38953   Biso      1.000     Zn          0.960569  
         Zn14      1.0000    0.80259   0.97653   0.80259   Biso      1.000     Zn          0.965302  
         Zn15      1.0000    0.80246   0.80246   0.80246   Biso      1.000     Zn          0.97139   
         Zn16      1.0000    0.61047   0.78424   0.61047   Biso      1.000     Zn          0.960568 