
##########################################################################
#               Crystallographic Information Format file
#               Produced by PyCifRW module
#
#  This is a CIF file.  CIF has been adopted by the International
#  Union of Crystallography as the standard for data archiving and
#  transmission.
#
#  For information on this file format, follow the CIF links at
#  http://www.iucr.org
##########################################################################

data_image0

_cell_length_a                          18.3149
_cell_length_b                          18.3149
_cell_length_c                          18.3149
_cell_angle_alpha                       60.3295
_cell_angle_beta                        60.3295
_cell_angle_gamma                       60.3295
_symmetry_space_group_name_H-M          'P 1'
_symmetry_int_tables_number             1
loop_
  _symmetry_equiv_pos_as_xyz
         'x, y, z' 
loop_
  _atom_site_label
  _atom_site_occupancy
  _atom_site_fract_x
  _atom_site_fract_y
  _atom_site_fract_z
  _atom_site_thermal_displace_type
  _atom_site_B_iso_or_equiv
  _atom_site_type_symbol
  _atom_site_charge
         C1        1.0000    0.39010   0.11130   0.11130   Biso      1.000     C          0.584705  
         C2        1.0000    0.59400   0.97480   0.97480   Biso      1.000     C          -0.096537           
         C3        1.0000    0.46470   0.97060   0.97060   Biso      1.000     C          -0.113719           
         C4        1.0000    0.55600   0.94610   0.94610   Biso      1.000     C          -0.01803  
         C5        1.0000    0.60990   0.88870   0.88870   Biso      1.000     C          0.584705  
         C6        1.0000    0.40600   0.02520   0.02520   Biso      1.000     C          -0.096537           
         C7        1.0000    0.53530   0.02940   0.02940   Biso      1.000     C          -0.113719           
         C8        1.0000    0.44400   0.05390   0.05390   Biso      1.000     C          -0.01803  
         C9        1.0000    0.88870   0.88870   0.60990   Biso      1.000     C          0.584705  
         C10       1.0000    0.02520   0.02520   0.40600   Biso      1.000     C          -0.096537           
         C11       1.0000    0.05390   0.05390   0.44400   Biso      1.000     C          -0.018033           
         C12       1.0000    0.11130   0.11130   0.39010   Biso      1.000     C          0.584705  
         C13       1.0000    0.02520   0.40600   0.02520   Biso      1.000     C          -0.096537           
         C14       1.0000    0.02940   0.53530   0.02940   Biso      1.000     C          -0.113719           
         C15       1.0000    0.05390   0.44400   0.05390   Biso      1.000     C          -0.01803  
         C16       1.0000    0.11130   0.39010   0.11130   Biso      1.000     C          0.584705  
         C17       1.0000    0.02770   0.53870   0.40510   Biso      1.000     C          -0.095707           
         C18       1.0000    0.02940   0.02940   0.53530   Biso      1.000     C          -0.113716           
         C19       1.0000    0.40510   0.02770   0.53870   Biso      1.000     C          -0.095708           
         C20       1.0000    0.94610   0.94610   0.55600   Biso      1.000     C          -0.018033           
         C21       1.0000    0.97480   0.97480   0.59400   Biso      1.000     C          -0.096537           
         C22       1.0000    0.55755   0.55755   0.94010   Biso      1.000     C          -0.019102           
         C23       1.0000    0.61060   0.61060   0.88830   Biso      1.000     C          0.584045  
         C24       1.0000    0.94010   0.55755   0.55755   Biso      1.000     C          -0.019102           
         C25       1.0000    0.88830   0.61060   0.61060   Biso      1.000     C          0.584045  
         C26       1.0000    0.55755   0.94010   0.55755   Biso      1.000     C          -0.019102           
         C27       1.0000    0.61060   0.88830   0.61060   Biso      1.000     C          0.584045  
         C28       1.0000    0.44245   0.44245   0.05990   Biso      1.000     C          -0.019102           
         C29       1.0000    0.97060   0.97060   0.46470   Biso      1.000     C          -0.113716           
         C30       1.0000    0.38940   0.38940   0.11170   Biso      1.000     C          0.584045  
         C31       1.0000    0.38940   0.11170   0.38940   Biso      1.000     C          0.584038  
         C32       1.0000    0.05990   0.44245   0.44245   Biso      1.000     C          -0.019102           
         C33       1.0000    0.11170   0.38940   0.38940   Biso      1.000     C          0.584045  
         C34       1.0000    0.97480   0.59400   0.97480   Biso      1.000     C          -0.096537           
         C35       1.0000    0.97060   0.46470   0.97060   Biso      1.000     C          -0.113719           
         C36       1.0000    0.94610   0.55600   0.94610   Biso      1.000     C          -0.01803  
         C37       1.0000    0.88870   0.60990   0.88870   Biso      1.000     C          0.584705  
         C38       1.0000    0.44245   0.05990   0.44245   Biso      1.000     C          -0.019094           
         C39       1.0000    0.59490   0.46130   0.97230   Biso      1.000     C          -0.095707           
         C40       1.0000    0.53870   0.40510   0.02770   Biso      1.000     C          -0.095707           
         C41       1.0000    0.97230   0.59490   0.46130   Biso      1.000     C          -0.095707           
         C42       1.0000    0.46130   0.59490   0.97230   Biso      1.000     C          -0.095707           
         C43       1.0000    0.97230   0.46130   0.59490   Biso      1.000     C          -0.095707           
         C44       1.0000    0.59490   0.97230   0.46130   Biso      1.000     C          -0.095707           
         C45       1.0000    0.40510   0.53870   0.02770   Biso      1.000     C          -0.095707           
         C46       1.0000    0.53870   0.02770   0.40510   Biso      1.000     C          -0.095708           
         C47       1.0000    0.02770   0.40510   0.53870   Biso      1.000     C          -0.095707           
         C48       1.0000    0.46130   0.97230   0.59490   Biso      1.000     C          -0.095707           
         H1        1.0000    0.04260   0.56530   0.34350   Biso      1.000     H          0.130496  
         H2        1.0000    0.65650   0.43470   0.95740   Biso      1.000     H          0.130496  
         H3        1.0000    0.43470   0.95740   0.65650   Biso      1.000     H          0.130496  
         H4        1.0000    0.95740   0.65650   0.43470   Biso      1.000     H          0.130496  
         H5        1.0000    0.34350   0.56530   0.04260   Biso      1.000     H          0.130496  
         H6        1.0000    0.95740   0.43470   0.65650   Biso      1.000     H          0.130496  
         H7        1.0000    0.65650   0.95740   0.43470   Biso      1.000     H          0.130496  
         H8        1.0000    0.56530   0.34350   0.04260   Biso      1.000     H          0.130495  
         H9        1.0000    0.56530   0.04260   0.34350   Biso      1.000     H          0.130496  
         H10       1.0000    0.04260   0.34350   0.56530   Biso      1.000     H          0.130496  
         H11       1.0000    0.43470   0.65650   0.95740   Biso      1.000     H          0.130495  
         H12       1.0000    0.04880   0.55860   0.04880   Biso      1.000     H          0.127165  
         H13       1.0000    0.34350   0.04260   0.56530   Biso      1.000     H          0.130496  
         H14       1.0000    0.04880   0.04880   0.55860   Biso      1.000     H          0.127164  
         H15       1.0000    0.04170   0.34450   0.04170   Biso      1.000     H          0.129325  
         H16       1.0000    0.95830   0.65550   0.95830   Biso      1.000     H          0.129325  
         H17       1.0000    0.95120   0.44140   0.95120   Biso      1.000     H          0.127165  
         H18       1.0000    0.95120   0.95120   0.44140   Biso      1.000     H          0.127164  
         H19       1.0000    0.95830   0.95830   0.65550   Biso      1.000     H          0.129325  
         H20       1.0000    0.44140   0.95120   0.95120   Biso      1.000     H          0.127165  
         H21       1.0000    0.34450   0.04170   0.04170   Biso      1.000     H          0.129325  
         H22       1.0000    0.55860   0.04880   0.04880   Biso      1.000     H          0.127165  
         H23       1.0000    0.04170   0.04170   0.34450   Biso      1.000     H          0.129325  
         H24       1.0000    0.65550   0.95830   0.95830   Biso      1.000     H          0.129325  
         O1        1.0000    0.13529   0.30119   0.42759   Biso      1.000     O          -0.554111           
         O2        1.0000    0.13380   0.42820   0.13380   Biso      1.000     O          -0.515852           
         O3        1.0000    0.30119   0.42759   0.13529   Biso      1.000     O          -0.554111           
         O4        1.0000    0.25153   0.25153   0.25153   Biso      1.000     O          -1.038234           
         O5        1.0000    0.74847   0.74847   0.74847   Biso      1.000     O          -1.038233           
         O6        1.0000    0.13410   0.30220   0.13410   Biso      1.000     O          -0.566612           
         O7        1.0000    0.86620   0.86620   0.57180   Biso      1.000     O          -0.515852           
         O8        1.0000    0.30220   0.13410   0.13410   Biso      1.000     O          -0.566612           
         O9        1.0000    0.57180   0.86620   0.86620   Biso      1.000     O          -0.515852           
         O10       1.0000    0.69780   0.86590   0.86590   Biso      1.000     O          -0.566612           
         O11       1.0000    0.42820   0.13380   0.13380   Biso      1.000     O          -0.515852           
         O12       1.0000    0.13380   0.13380   0.42820   Biso      1.000     O          -0.515852           
         O13       1.0000    0.42759   0.13529   0.30119   Biso      1.000     O          -0.55411  
         O14       1.0000    0.13410   0.13410   0.30220   Biso      1.000     O          -0.566612           
         O15       1.0000    0.86590   0.86590   0.69780   Biso      1.000     O          -0.566612           
         O16       1.0000    0.57241   0.69881   0.86471   Biso      1.000     O          -0.554111           
         O17       1.0000    0.86620   0.57180   0.86620   Biso      1.000     O          -0.515852           
         O18       1.0000    0.86471   0.57241   0.69881   Biso      1.000     O          -0.554111           
         O19       1.0000    0.69881   0.57241   0.86471   Biso      1.000     O          -0.554111           
         O20       1.0000    0.86471   0.69881   0.57241   Biso      1.000     O          -0.554111           
         O21       1.0000    0.57241   0.86471   0.69881   Biso      1.000     O          -0.554111           
         O22       1.0000    0.42759   0.30119   0.13529   Biso      1.000     O          -0.554111           
         O23       1.0000    0.30119   0.13529   0.42759   Biso      1.000     O          -0.55411  
         O24       1.0000    0.13529   0.42759   0.30119   Biso      1.000     O          -0.554111           
         O25       1.0000    0.86590   0.69780   0.86590   Biso      1.000     O          -0.566612           
         O26       1.0000    0.69881   0.86471   0.57241   Biso      1.000     O          -0.554111           
         Zn1       1.0000    0.79391   0.79391   0.79391   Biso      1.000     Zn          0.933262  
         Zn2       1.0000    0.20677   0.37952   0.20677   Biso      1.000     Zn          0.978247  
         Zn3       1.0000    0.20677   0.20677   0.37952   Biso      1.000     Zn          0.978247  
         Zn4       1.0000    0.79323   0.62048   0.79323   Biso      1.000     Zn          0.978246  
         Zn5       1.0000    0.62048   0.79323   0.79323   Biso      1.000     Zn          0.978246  
         Zn6       1.0000    0.79323   0.79323   0.62048   Biso      1.000     Zn          0.978247  
         Zn7       1.0000    0.37952   0.20677   0.20677   Biso      1.000     Zn          0.978247  
         Zn8       1.0000    0.20609   0.20609   0.20609   Biso      1.000     Zn          0.933262 