
##########################################################################
#               Crystallographic Information Format file
#               Produced by PyCifRW module
#
#  This is a CIF file.  CIF has been adopted by the International
#  Union of Crystallography as the standard for data archiving and
#  transmission.
#
#  For information on this file format, follow the CIF links at
#  http://www.iucr.org
##########################################################################

data_image0

_cell_length_a                          18.38
_cell_length_b                          18.38
_cell_length_c                          18.38
_cell_angle_alpha                       60.2595
_cell_angle_beta                        60.2595
_cell_angle_gamma                       60.2595
_symmetry_space_group_name_H-M          'P 1'
_symmetry_int_tables_number             1
loop_
  _symmetry_equiv_pos_as_xyz
         'x, y, z' 
loop_
  _atom_site_label
  _atom_site_occupancy
  _atom_site_fract_x
  _atom_site_fract_y
  _atom_site_fract_z
  _atom_site_thermal_displace_type
  _atom_site_B_iso_or_equiv
  _atom_site_type_symbol
  _atom_site_charge
         C1        1.0000    0.62399   0.00639   0.62399   Biso      1.000     C          -0.102507           
         C2        1.0000    0.06000   0.57020   0.57020   Biso      1.000     C          -0.103566           
         C3        1.0000    0.13414   0.62424   0.62424   Biso      1.000     C          -0.104761           
         C4        1.0000    0.18707   0.57097   0.57097   Biso      1.000     C          -0.10469  
         C5        1.0000    0.65066   0.04386   0.65066   Biso      1.000     C          -0.01899  
         C6        1.0000    0.15117   0.54347   0.54347   Biso      1.000     C          -0.022686           
         C7        1.0000    0.20881   0.48561   0.48561   Biso      1.000     C          0.610314  
         C8        1.0000    0.70907   0.70907   0.98557   Biso      1.000     C          0.612241  
         C9        1.0000    0.65066   0.65066   0.04386   Biso      1.000     C          -0.019004           
         C10       1.0000    0.79099   0.51459   0.79099   Biso      1.000     C          0.607753  
         C11       1.0000    0.84925   0.45495   0.84925   Biso      1.000     C          -0.018116           
         C12       1.0000    0.95626   0.34836   0.95626   Biso      1.000     C          -0.020196           
         C13       1.0000    0.01460   0.29090   0.01460   Biso      1.000     C          0.614027  
         C14       1.0000    0.00639   0.62399   0.62399   Biso      1.000     C          -0.102509           
         C15       1.0000    0.51459   0.79099   0.79099   Biso      1.000     C          0.607753  
         C16       1.0000    0.34836   0.95626   0.95626   Biso      1.000     C          -0.020196           
         C17       1.0000    0.29090   0.01460   0.01460   Biso      1.000     C          0.614027  
         C18       1.0000    0.62553   0.00643   0.13443   Biso      1.000     C          -0.104337           
         C19       1.0000    0.84925   0.84925   0.45495   Biso      1.000     C          -0.018116           
         C20       1.0000    0.95626   0.95626   0.34836   Biso      1.000     C          -0.020196           
         C21       1.0000    0.01460   0.01460   0.29090   Biso      1.000     C          0.614027  
         C22       1.0000    0.79119   0.51439   0.51439   Biso      1.000     C          0.610314  
         C23       1.0000    0.84883   0.45653   0.45653   Biso      1.000     C          -0.022686           
         C24       1.0000    0.81293   0.42903   0.42903   Biso      1.000     C          -0.10469  
         C25       1.0000    0.86586   0.37576   0.37576   Biso      1.000     C          -0.104761           
         C26       1.0000    0.94000   0.42980   0.42980   Biso      1.000     C          -0.103566           
         C27       1.0000    0.99361   0.37601   0.37601   Biso      1.000     C          -0.102509           
         C28       1.0000    0.45495   0.84925   0.84925   Biso      1.000     C          -0.018116           
         C29       1.0000    0.95614   0.34934   0.34934   Biso      1.000     C          -0.018974           
         C30       1.0000    0.04386   0.65066   0.65066   Biso      1.000     C          -0.018974           
         C31       1.0000    0.06055   0.57225   0.18765   Biso      1.000     C          -0.101425           
         C32       1.0000    0.18765   0.57225   0.06055   Biso      1.000     C          -0.101424           
         C33       1.0000    0.13443   0.62553   0.00643   Biso      1.000     C          -0.104337           
         C34       1.0000    0.06055   0.18765   0.57225   Biso      1.000     C          -0.101424           
         C35       1.0000    0.00643   0.13443   0.62553   Biso      1.000     C          -0.104337           
         C36       1.0000    0.57020   0.06000   0.57020   Biso      1.000     C          -0.103566           
         C37       1.0000    0.62424   0.13414   0.62424   Biso      1.000     C          -0.104744           
         C38       1.0000    0.57097   0.18707   0.57097   Biso      1.000     C          -0.104693           
         C39       1.0000    0.54347   0.15117   0.54347   Biso      1.000     C          -0.022685           
         C40       1.0000    0.48561   0.20881   0.48561   Biso      1.000     C          0.610314  
         C41       1.0000    0.98540   0.98540   0.70910   Biso      1.000     C          0.614026  
         C42       1.0000    0.04374   0.04374   0.65164   Biso      1.000     C          -0.020185           
         C43       1.0000    0.15075   0.15075   0.54505   Biso      1.000     C          -0.018116           
         C44       1.0000    0.98557   0.70907   0.70907   Biso      1.000     C          0.612239  
         C45       1.0000    0.20901   0.20901   0.48541   Biso      1.000     C          0.607753  
         C46       1.0000    0.04374   0.65164   0.04374   Biso      1.000     C          -0.020185           
         C47       1.0000    0.15075   0.54505   0.15075   Biso      1.000     C          -0.018116           
         C48       1.0000    0.20901   0.48541   0.20901   Biso      1.000     C          0.607753  
         C49       1.0000    0.70910   0.98540   0.98540   Biso      1.000     C          0.614025  
         C50       1.0000    0.65164   0.04374   0.04374   Biso      1.000     C          -0.020185           
         C51       1.0000    0.54505   0.15075   0.15075   Biso      1.000     C          -0.018116           
         C52       1.0000    0.48541   0.20901   0.20901   Biso      1.000     C          0.607753  
         C53       1.0000    0.13443   0.00643   0.62553   Biso      1.000     C          -0.104326           
         C54       1.0000    0.18765   0.06055   0.57225   Biso      1.000     C          -0.101425           
         C55       1.0000    0.62553   0.13443   0.00643   Biso      1.000     C          -0.104326           
         C56       1.0000    0.57225   0.18765   0.06055   Biso      1.000     C          -0.101425           
         C57       1.0000    0.00643   0.62553   0.13443   Biso      1.000     C          -0.104326           
         C58       1.0000    0.98540   0.70910   0.98540   Biso      1.000     C          0.614026  
         C59       1.0000    0.01443   0.29093   0.29093   Biso      1.000     C          0.612239  
         C60       1.0000    0.79099   0.79099   0.51459   Biso      1.000     C          0.607753  
         C61       1.0000    0.45653   0.45653   0.84883   Biso      1.000     C          -0.022686           
         C62       1.0000    0.99357   0.86557   0.37447   Biso      1.000     C          -0.104325           
         C63       1.0000    0.93945   0.42775   0.81235   Biso      1.000     C          -0.101425           
         C64       1.0000    0.99357   0.37447   0.86557   Biso      1.000     C          -0.104325           
         C65       1.0000    0.42775   0.81235   0.93945   Biso      1.000     C          -0.101426           
         C66       1.0000    0.37447   0.86557   0.99357   Biso      1.000     C          -0.104325           
         C67       1.0000    0.81235   0.93945   0.42775   Biso      1.000     C          -0.101425           
         C68       1.0000    0.86557   0.99357   0.37447   Biso      1.000     C          -0.104325           
         C69       1.0000    0.51439   0.51439   0.79119   Biso      1.000     C          0.610314  
         C70       1.0000    0.62399   0.62399   0.00639   Biso      1.000     C          -0.102492           
         C71       1.0000    0.57020   0.57020   0.06000   Biso      1.000     C          -0.103569           
         C72       1.0000    0.62424   0.62424   0.13414   Biso      1.000     C          -0.104743           
         C73       1.0000    0.57097   0.57097   0.18707   Biso      1.000     C          -0.104693           
         C74       1.0000    0.54347   0.54347   0.15117   Biso      1.000     C          -0.022685           
         C75       1.0000    0.48561   0.48561   0.20881   Biso      1.000     C          0.610314  
         C76       1.0000    0.70907   0.98557   0.70907   Biso      1.000     C          0.61224   
         C77       1.0000    0.93945   0.81235   0.42775   Biso      1.000     C          -0.101425           
         C78       1.0000    0.86557   0.37447   0.99357   Biso      1.000     C          -0.104325           
         C79       1.0000    0.57225   0.06055   0.18765   Biso      1.000     C          -0.101424           
         C80       1.0000    0.37447   0.99357   0.86557   Biso      1.000     C          -0.104325           
         C81       1.0000    0.42903   0.42903   0.81293   Biso      1.000     C          -0.10469  
         C82       1.0000    0.37576   0.37576   0.86586   Biso      1.000     C          -0.104762           
         C83       1.0000    0.42980   0.42980   0.94000   Biso      1.000     C          -0.103566           
         C84       1.0000    0.37601   0.37601   0.99361   Biso      1.000     C          -0.102509           
         C85       1.0000    0.34934   0.34934   0.95614   Biso      1.000     C          -0.018974           
         C86       1.0000    0.29093   0.29093   0.01443   Biso      1.000     C          0.612239  
         C87       1.0000    0.81235   0.42775   0.93945   Biso      1.000     C          -0.101426           
         C88       1.0000    0.45653   0.84883   0.45653   Biso      1.000     C          -0.022685           
         C89       1.0000    0.51439   0.79119   0.51439   Biso      1.000     C          0.610314  
         C90       1.0000    0.42775   0.93945   0.81235   Biso      1.000     C          -0.101425           
         C91       1.0000    0.29093   0.01443   0.29093   Biso      1.000     C          0.612241  
         C92       1.0000    0.34934   0.95614   0.34934   Biso      1.000     C          -0.019004           
         C93       1.0000    0.37601   0.99361   0.37601   Biso      1.000     C          -0.102492           
         C94       1.0000    0.42980   0.94000   0.42980   Biso      1.000     C          -0.103568           
         C95       1.0000    0.37576   0.86586   0.37576   Biso      1.000     C          -0.104743           
         C96       1.0000    0.42903   0.81293   0.42903   Biso      1.000     C          -0.104693           
         H1        1.0000    0.96620   0.44760   0.44760   Biso      1.000     H          0.12106   
         H2        1.0000    0.16070   0.94490   0.64330   Biso      1.000     H          0.121971  
         H3        1.0000    0.24910   0.03460   0.55520   Biso      1.000     H          0.115264  
         H4        1.0000    0.64330   0.16070   0.94490   Biso      1.000     H          0.121971  
         H5        1.0000    0.55520   0.24910   0.03460   Biso      1.000     H          0.115264  
         H6        1.0000    0.94490   0.64330   0.16070   Biso      1.000     H          0.121971  
         H7        1.0000    0.03460   0.55520   0.24910   Biso      1.000     H          0.115264  
         H8        1.0000    0.94500   0.64150   0.64150   Biso      1.000     H          0.116165  
         H9        1.0000    0.24840   0.55370   0.55370   Biso      1.000     H          0.119001  
         H10       1.0000    0.16030   0.64200   0.64200   Biso      1.000     H          0.121837  
         H11       1.0000    0.55520   0.03460   0.24910   Biso      1.000     H          0.115264  
         H12       1.0000    0.64150   0.64150   0.94500   Biso      1.000     H          0.116164  
         H13       1.0000    0.55240   0.55240   0.03380   Biso      1.000     H          0.12106   
         H14       1.0000    0.64200   0.64200   0.16030   Biso      1.000     H          0.121836  
         H15       1.0000    0.55370   0.55370   0.24840   Biso      1.000     H          0.119002  
         H16       1.0000    0.64150   0.94500   0.64150   Biso      1.000     H          0.116165  
         H17       1.0000    0.55240   0.03380   0.55240   Biso      1.000     H          0.12106   
         H18       1.0000    0.64200   0.16030   0.64200   Biso      1.000     H          0.121836  
         H19       1.0000    0.55370   0.24840   0.55370   Biso      1.000     H          0.119001  
         H20       1.0000    0.03380   0.55240   0.55240   Biso      1.000     H          0.12106   
         H21       1.0000    0.64330   0.94490   0.16070   Biso      1.000     H          0.121972  
         H22       1.0000    0.16070   0.64330   0.94490   Biso      1.000     H          0.121972  
         H23       1.0000    0.83970   0.35800   0.35800   Biso      1.000     H          0.121837  
         H24       1.0000    0.05500   0.35850   0.35850   Biso      1.000     H          0.116165  
         H25       1.0000    0.44630   0.44630   0.75160   Biso      1.000     H          0.119001  
         H26       1.0000    0.35800   0.35800   0.83970   Biso      1.000     H          0.121837  
         H27       1.0000    0.44760   0.44760   0.96620   Biso      1.000     H          0.12106   
         H28       1.0000    0.35850   0.35850   0.05500   Biso      1.000     H          0.116165  
         H29       1.0000    0.44630   0.75160   0.44630   Biso      1.000     H          0.119001  
         H30       1.0000    0.35800   0.83970   0.35800   Biso      1.000     H          0.121836  
         H31       1.0000    0.44760   0.96620   0.44760   Biso      1.000     H          0.12106   
         H32       1.0000    0.35850   0.05500   0.35850   Biso      1.000     H          0.116164  
         H33       1.0000    0.44480   0.96540   0.75090   Biso      1.000     H          0.115264  
         H34       1.0000    0.35670   0.05510   0.83930   Biso      1.000     H          0.121971  
         H35       1.0000    0.75160   0.44630   0.44630   Biso      1.000     H          0.119001  
         H36       1.0000    0.83930   0.35670   0.05510   Biso      1.000     H          0.121971  
         H37       1.0000    0.96540   0.75090   0.44480   Biso      1.000     H          0.115264  
         H38       1.0000    0.05510   0.83930   0.35670   Biso      1.000     H          0.121971  
         H39       1.0000    0.96540   0.44480   0.75090   Biso      1.000     H          0.115264  
         H40       1.0000    0.05510   0.35670   0.83930   Biso      1.000     H          0.121971  
         H41       1.0000    0.44480   0.75090   0.96540   Biso      1.000     H          0.115264  
         H42       1.0000    0.35670   0.83930   0.05510   Biso      1.000     H          0.121971  
         H43       1.0000    0.75090   0.96540   0.44480   Biso      1.000     H          0.115264  
         H44       1.0000    0.83930   0.05510   0.35670   Biso      1.000     H          0.121971  
         H45       1.0000    0.94490   0.16070   0.64330   Biso      1.000     H          0.121972  
         H46       1.0000    0.03460   0.24910   0.55520   Biso      1.000     H          0.115264  
         H47       1.0000    0.24910   0.55520   0.03460   Biso      1.000     H          0.115264  
         H48       1.0000    0.75090   0.44480   0.96540   Biso      1.000     H          0.115264  
         O1        1.0000    0.15274   0.15274   0.15274   Biso      1.000     O          -1.04247  
         O2        1.0000    0.90295   0.02385   0.73165   Biso      1.000     O          -0.548659           
         O3        1.0000    0.73140   0.02365   0.73140   Biso      1.000     O          -0.543296           
         O4        1.0000    0.73073   0.90247   0.73073   Biso      1.000     O          -0.549355           
         O5        1.0000    0.46375   0.29195   0.46375   Biso      1.000     O          -0.551177           
         O6        1.0000    0.46304   0.17049   0.46304   Biso      1.000     O          -0.547072           
         O7        1.0000    0.73140   0.73140   0.02365   Biso      1.000     O          -0.543296           
         O8        1.0000    0.73073   0.73073   0.90247   Biso      1.000     O          -0.549355           
         O9        1.0000    0.46375   0.46375   0.29195   Biso      1.000     O          -0.551177           
         O10       1.0000    0.46304   0.46304   0.17049   Biso      1.000     O          -0.547071           
         O11       1.0000    0.02365   0.73140   0.73140   Biso      1.000     O          -0.543296           
         O12       1.0000    0.90247   0.73073   0.73073   Biso      1.000     O          -0.549355           
         O13       1.0000    0.29195   0.46375   0.46375   Biso      1.000     O          -0.551177           
         O14       1.0000    0.90295   0.73165   0.02385   Biso      1.000     O          -0.54866  
         O15       1.0000    0.17033   0.46323   0.29213   Biso      1.000     O          -0.543626           
         O16       1.0000    0.73165   0.02385   0.90295   Biso      1.000     O          -0.54866  
         O17       1.0000    0.46323   0.29213   0.17033   Biso      1.000     O          -0.543626           
         O18       1.0000    0.02385   0.90295   0.73165   Biso      1.000     O          -0.54866  
         O19       1.0000    0.29213   0.17033   0.46323   Biso      1.000     O          -0.543626           
         O20       1.0000    0.73165   0.90295   0.02385   Biso      1.000     O          -0.54866  
         O21       1.0000    0.46323   0.17033   0.29213   Biso      1.000     O          -0.543626           
         O22       1.0000    0.02385   0.73165   0.90295   Biso      1.000     O          -0.54866  
         O23       1.0000    0.29213   0.46323   0.17033   Biso      1.000     O          -0.543626           
         O24       1.0000    0.17033   0.29213   0.46323   Biso      1.000     O          -0.543626           
         O25       1.0000    0.17049   0.46304   0.46304   Biso      1.000     O          -0.547071           
         O26       1.0000    0.84726   0.84726   0.84726   Biso      1.000     O          -1.04247  
         O27       1.0000    0.53696   0.82951   0.53696   Biso      1.000     O          -0.547072           
         O28       1.0000    0.53677   0.70787   0.82967   Biso      1.000     O          -0.543626           
         O29       1.0000    0.26835   0.97615   0.09705   Biso      1.000     O          -0.54866  
         O30       1.0000    0.82967   0.53677   0.70787   Biso      1.000     O          -0.543626           
         O31       1.0000    0.09705   0.26835   0.97615   Biso      1.000     O          -0.54866  
         O32       1.0000    0.82967   0.70787   0.53677   Biso      1.000     O          -0.543626           
         O33       1.0000    0.09705   0.97615   0.26835   Biso      1.000     O          -0.54866  
         O34       1.0000    0.70787   0.53677   0.82967   Biso      1.000     O          -0.543626           
         O35       1.0000    0.97615   0.26835   0.09705   Biso      1.000     O          -0.54866  
         O36       1.0000    0.53677   0.82967   0.70787   Biso      1.000     O          -0.543626           
         O37       1.0000    0.26835   0.09705   0.97615   Biso      1.000     O          -0.54866  
         O38       1.0000    0.53625   0.70805   0.53625   Biso      1.000     O          -0.551177           
         O39       1.0000    0.26927   0.09753   0.26927   Biso      1.000     O          -0.549356           
         O40       1.0000    0.26860   0.97635   0.26860   Biso      1.000     O          -0.543296           
         O41       1.0000    0.97615   0.09705   0.26835   Biso      1.000     O          -0.54866  
         O42       1.0000    0.53696   0.53696   0.82951   Biso      1.000     O          -0.547071           
         O43       1.0000    0.26927   0.26927   0.09753   Biso      1.000     O          -0.549355           
         O44       1.0000    0.53625   0.53625   0.70805   Biso      1.000     O          -0.551177           
         O45       1.0000    0.65253   0.65253   0.65253   Biso      1.000     O          -1.041509           
         O46       1.0000    0.97635   0.26860   0.26860   Biso      1.000     O          -0.543296           
         O47       1.0000    0.09753   0.26927   0.26927   Biso      1.000     O          -0.549355           
         O48       1.0000    0.34747   0.34747   0.34747   Biso      1.000     O          -1.041509           
         O49       1.0000    0.70805   0.53625   0.53625   Biso      1.000     O          -0.551177           
         O50       1.0000    0.82951   0.53696   0.53696   Biso      1.000     O          -0.547071           
         O51       1.0000    0.26860   0.26860   0.97635   Biso      1.000     O          -0.543296           
         O52       1.0000    0.70787   0.82967   0.53677   Biso      1.000     O          -0.543626           
         Zn1       1.0000    0.60879   0.60879   0.60879   Biso      1.000     Zn          0.97033   
         Zn2       1.0000    0.02202   0.19614   0.19614   Biso      1.000     Zn          0.970437  
         Zn3       1.0000    0.78329   0.60933   0.60933   Biso      1.000     Zn          0.964841  
         Zn4       1.0000    0.19614   0.19614   0.02202   Biso      1.000     Zn          0.970436  
         Zn5       1.0000    0.60933   0.60933   0.78329   Biso      1.000     Zn          0.964841  
         Zn6       1.0000    0.19614   0.02202   0.19614   Biso      1.000     Zn          0.970437  
         Zn7       1.0000    0.19661   0.19661   0.19661   Biso      1.000     Zn          0.964631  
         Zn8       1.0000    0.39121   0.39121   0.39121   Biso      1.000     Zn          0.970331  
         Zn9       1.0000    0.21671   0.39067   0.39067   Biso      1.000     Zn          0.964841  
         Zn10      1.0000    0.97798   0.80386   0.80386   Biso      1.000     Zn          0.970437  
         Zn11      1.0000    0.39067   0.39067   0.21671   Biso      1.000     Zn          0.964841  
         Zn12      1.0000    0.80386   0.80386   0.97798   Biso      1.000     Zn          0.970437  
         Zn13      1.0000    0.39067   0.21671   0.39067   Biso      1.000     Zn          0.964842  
         Zn14      1.0000    0.80386   0.97798   0.80386   Biso      1.000     Zn          0.970437  
         Zn15      1.0000    0.80339   0.80339   0.80339   Biso      1.000     Zn          0.96463   
         Zn16      1.0000    0.60933   0.78329   0.60933   Biso      1.000     Zn          0.964842 