
##########################################################################
#               Crystallographic Information Format file
#               Produced by PyCifRW module
#
#  This is a CIF file.  CIF has been adopted by the International
#  Union of Crystallography as the standard for data archiving and
#  transmission.
#
#  For information on this file format, follow the CIF links at
#  http://www.iucr.org
##########################################################################

data_image0

_cell_length_a                          14.5755
_cell_length_b                          14.5755
_cell_length_c                          14.5755
_cell_angle_alpha                       109.471
_cell_angle_beta                        109.471
_cell_angle_gamma                       109.471
_symmetry_space_group_name_H-M          'P 1'
_symmetry_int_tables_number             1
loop_
  _symmetry_equiv_pos_as_xyz
         'x, y, z' 
loop_
  _atom_site_label
  _atom_site_occupancy
  _atom_site_fract_x
  _atom_site_fract_y
  _atom_site_fract_z
  _atom_site_thermal_displace_type
  _atom_site_B_iso_or_equiv
  _atom_site_type_symbol
  _atom_site_charge
         C1        1.0000    0.26500   0.57290   0.05570   Biso      1.000     C          -0.085055           
         C2        1.0000    0.05570   0.57290   0.26500   Biso      1.000     C          -0.085055           
         C3        1.0000    0.69210   0.42710   0.48280   Biso      1.000     C          -0.084996           
         C4        1.0000    0.51720   0.94430   0.20930   Biso      1.000     C          -0.084978           
         C5        1.0000    0.73500   0.30790   0.79070   Biso      1.000     C          -0.085    
         C6        1.0000    0.48280   0.69210   0.42710   Biso      1.000     C          -0.084996           
         C7        1.0000    0.26500   0.05570   0.57290   Biso      1.000     C          -0.085055           
         C8        1.0000    0.94430   0.20930   0.51720   Biso      1.000     C          -0.084978           
         C9        1.0000    0.51720   0.20930   0.94430   Biso      1.000     C          -0.084978           
         C10       1.0000    0.48280   0.42710   0.69210   Biso      1.000     C          -0.084996           
         C11       1.0000    0.57290   0.05570   0.26500   Biso      1.000     C          -0.08499  
         C12       1.0000    0.42710   0.69210   0.48280   Biso      1.000     C          -0.084931           
         C13       1.0000    0.79070   0.30790   0.73500   Biso      1.000     C          -0.084935           
         C14       1.0000    0.20930   0.94430   0.51720   Biso      1.000     C          -0.084913           
         C15       1.0000    0.30790   0.73500   0.79070   Biso      1.000     C          -0.085    
         C16       1.0000    0.73500   0.79070   0.30790   Biso      1.000     C          -0.085    
         C17       1.0000    0.94430   0.51720   0.20930   Biso      1.000     C          -0.084913           
         C18       1.0000    0.30790   0.79070   0.73500   Biso      1.000     C          -0.084935           
         C19       1.0000    0.79070   0.73500   0.30790   Biso      1.000     C          -0.084935           
         C20       1.0000    0.61658   0.37502   0.00000   Biso      1.000     C          0.157793  
         C21       1.0000    0.62498   0.62498   0.24156   Biso      1.000     C          0.15778   
         C22       1.0000    0.38342   0.38342   0.75844   Biso      1.000     C          0.15778   
         C23       1.0000    0.37502   0.61658   0.00000   Biso      1.000     C          0.157793  
         C24       1.0000    0.61658   0.00000   0.37502   Biso      1.000     C          0.157793  
         C25       1.0000    0.38342   0.75844   0.38342   Biso      1.000     C          0.15778   
         C26       1.0000    0.20930   0.51720   0.94430   Biso      1.000     C          -0.084913           
         C27       1.0000    0.62498   0.24156   0.62498   Biso      1.000     C          0.15778   
         C28       1.0000    0.24156   0.62498   0.62498   Biso      1.000     C          0.15778   
         C29       1.0000    0.00000   0.61658   0.37502   Biso      1.000     C          0.157793  
         C30       1.0000    0.00000   0.37502   0.61658   Biso      1.000     C          0.157793  
         C31       1.0000    0.75844   0.38342   0.38342   Biso      1.000     C          0.15778   
         C32       1.0000    0.57290   0.26500   0.05570   Biso      1.000     C          -0.08499  
         C33       1.0000    0.42710   0.48280   0.69210   Biso      1.000     C          -0.084931           
         C34       1.0000    0.37502   0.00000   0.61658   Biso      1.000     C          0.157793  
         C35       1.0000    0.05570   0.26500   0.57290   Biso      1.000     C          -0.08499  
         C36       1.0000    0.69210   0.48280   0.42710   Biso      1.000     C          -0.084931           
         H1        1.0000    0.35910   0.80320   0.35910   Biso      1.000     H          0.061953  
         H2        1.0000    0.46130   0.89800   0.13210   Biso      1.000     H          0.104747  
         H3        1.0000    0.76590   0.32920   0.86790   Biso      1.000     H          0.104753  
         H4        1.0000    0.53870   0.67080   0.43670   Biso      1.000     H          0.104735  
         H5        1.0000    0.55590   0.19680   0.55590   Biso      1.000     H          0.061967  
         H6        1.0000    0.46130   0.13210   0.89800   Biso      1.000     H          0.104747  
         H7        1.0000    0.76590   0.86790   0.32920   Biso      1.000     H          0.104753  
         H8        1.0000    0.53870   0.43670   0.67080   Biso      1.000     H          0.104735  
         H9        1.0000    0.67080   0.43670   0.53870   Biso      1.000     H          0.104735  
         H10       1.0000    0.23410   0.56330   0.10200   Biso      1.000     H          0.104739  
         H11       1.0000    0.43670   0.67080   0.53870   Biso      1.000     H          0.10473   
         H12       1.0000    0.86790   0.32920   0.76590   Biso      1.000     H          0.104748  
         H13       1.0000    0.13210   0.89800   0.46130   Biso      1.000     H          0.104742  
         H14       1.0000    0.32920   0.76590   0.86790   Biso      1.000     H          0.104753  
         H15       1.0000    0.89800   0.46130   0.13210   Biso      1.000     H          0.104743  
         H16       1.0000    0.10200   0.23410   0.56330   Biso      1.000     H          0.104734  
         H17       1.0000    0.67080   0.53870   0.43670   Biso      1.000     H          0.104731  
         H18       1.0000    0.56330   0.10200   0.23410   Biso      1.000     H          0.104734  
         H19       1.0000    0.10200   0.56330   0.23410   Biso      1.000     H          0.104739  
         H20       1.0000    0.23410   0.10200   0.56330   Biso      1.000     H          0.104739  
         H21       1.0000    0.32920   0.86790   0.76590   Biso      1.000     H          0.104748  
         H22       1.0000    0.64090   0.00000   0.44410   Biso      1.000     H          0.061955  
         H23       1.0000    0.44410   0.64090   0.00000   Biso      1.000     H          0.061955  
         H24       1.0000    0.89800   0.13210   0.46130   Biso      1.000     H          0.104747  
         H25       1.0000    0.55590   0.55590   0.19680   Biso      1.000     H          0.061967  
         H26       1.0000    0.64090   0.44410   0.00000   Biso      1.000     H          0.061955  
         H27       1.0000    0.44410   0.00000   0.64090   Biso      1.000     H          0.061955  
         H28       1.0000    0.19680   0.55590   0.55590   Biso      1.000     H          0.061967  
         H29       1.0000    0.35910   0.35910   0.80320   Biso      1.000     H          0.061953  
         H30       1.0000    0.00000   0.44410   0.64090   Biso      1.000     H          0.061955  
         H31       1.0000    0.80320   0.35910   0.35910   Biso      1.000     H          0.061953  
         H32       1.0000    0.56330   0.23410   0.10200   Biso      1.000     H          0.104734  
         H33       1.0000    0.43670   0.53870   0.67080   Biso      1.000     H          0.10473   
         H34       1.0000    0.86790   0.76590   0.32920   Biso      1.000     H          0.104748  
         H35       1.0000    0.13210   0.46130   0.89800   Biso      1.000     H          0.104742  
         H36       1.0000    1.00000   0.64090   0.44410   Biso      1.000     H          0.061955  
         N1        1.0000    0.62598   0.71917   0.27231   Biso      1.000     N          -0.283866           
         N2        1.0000    0.55314   0.28083   0.90681   Biso      1.000     N          -0.28388  
         N3        1.0000    0.37402   0.09319   0.64633   Biso      1.000     N          -0.283811           
         N4        1.0000    0.44686   0.72769   0.35367   Biso      1.000     N          -0.283827           
         N5        1.0000    0.62598   0.27231   0.71917   Biso      1.000     N          -0.283866           
         N6        1.0000    0.55314   0.90681   0.28083   Biso      1.000     N          -0.28388  
         N7        1.0000    0.27231   0.71917   0.62598   Biso      1.000     N          -0.283874           
         N8        1.0000    0.28083   0.55314   0.90681   Biso      1.000     N          -0.283887           
         N9        1.0000    0.90681   0.28083   0.55314   Biso      1.000     N          -0.28388  
         N10       1.0000    0.09319   0.64633   0.37402   Biso      1.000     N          -0.283811           
         N11       1.0000    0.72769   0.35367   0.44686   Biso      1.000     N          -0.283827           
         N12       1.0000    0.44686   0.35367   0.72769   Biso      1.000     N          -0.283827           
         N13       1.0000    0.71917   0.62598   0.27231   Biso      1.000     N          -0.283874           
         N14       1.0000    0.37402   0.64633   0.09319   Biso      1.000     N          -0.283811           
         N15       1.0000    0.64633   0.37402   0.09319   Biso      1.000     N          -0.283818           
         N16       1.0000    0.35367   0.72769   0.44686   Biso      1.000     N          -0.283834           
         N17       1.0000    0.71917   0.27231   0.62598   Biso      1.000     N          -0.283873           
         N18       1.0000    0.28083   0.90681   0.55314   Biso      1.000     N          -0.283887           
         N19       1.0000    0.27231   0.62598   0.71917   Biso      1.000     N          -0.283866           
         N20       1.0000    0.90681   0.55314   0.28083   Biso      1.000     N          -0.283887           
         N21       1.0000    0.09319   0.37402   0.64633   Biso      1.000     N          -0.283818           
         N22       1.0000    0.72769   0.44686   0.35367   Biso      1.000     N          -0.283834           
         N23       1.0000    0.35367   0.44686   0.72769   Biso      1.000     N          -0.283834           
         N24       1.0000    0.64633   0.09319   0.37402   Biso      1.000     N          -0.283818           
         Zn1       1.0000    0.50000   0.25000   0.75000   Biso      1.000     Zn          0.616844  
         Zn2       1.0000    0.50000   0.75000   0.25000   Biso      1.000     Zn          0.616844  
         Zn3       1.0000    0.75000   0.25000   0.50000   Biso      1.000     Zn          0.616844  
         Zn4       1.0000    0.25000   0.75000   0.50000   Biso      1.000     Zn          0.616843  
         Zn5       1.0000    0.25000   0.50000   0.75000   Biso      1.000     Zn          0.616843  
         Zn6       1.0000    0.75000   0.50000   0.25000   Biso      1.000     Zn          0.616844 