
##########################################################################
#               Crystallographic Information Format file
#               Produced by PyCifRW module
#
#  This is a CIF file.  CIF has been adopted by the International
#  Union of Crystallography as the standard for data archiving and
#  transmission.
#
#  For information on this file format, follow the CIF links at
#  http://www.iucr.org
##########################################################################

data_image0

_cell_length_a                          17.7771
_cell_length_b                          17.7771
_cell_length_c                          19.1129
_cell_angle_alpha                       90
_cell_angle_beta                        90
_cell_angle_gamma                       120
_symmetry_space_group_name_H-M          'P 1'
_symmetry_int_tables_number             1
loop_
  _symmetry_equiv_pos_as_xyz
         'x, y, z' 
loop_
  _atom_site_label
  _atom_site_occupancy
  _atom_site_fract_x
  _atom_site_fract_y
  _atom_site_fract_z
  _atom_site_thermal_displace_type
  _atom_site_B_iso_or_equiv
  _atom_site_type_symbol
  _atom_site_charge
         C1        1.0000    0.47200   0.37600   0.16660   Biso      1.000     C          0.120335  
         C2        1.0000    0.03900   0.36717   0.51900   Biso      1.000     C          0.086363  
         C3        1.0000    0.17300   0.37100   0.56000   Biso      1.000     C          -0.16042599999999999          
         C4        1.0000    0.09800   0.33458   0.52200   Biso      1.000     C          -0.141424           
         C5        1.0000    0.06000   0.44300   0.55700   Biso      1.000     C          -0.226481           
         C6        1.0000    0.19200   0.44451   0.60000   Biso      1.000     C          0.11558299999999999           
         C7        1.0000    0.14100   0.48600   0.59100   Biso      1.000     C          0.13337100000000002           
         C8        1.0000    0.38700   0.41300   0.09436   Biso      1.000     C          -0.145439           
         C9        1.0000    0.40400   0.39300   0.16000   Biso      1.000     C          -0.15471500000000002          
         C10       1.0000    0.42800   0.40200   0.03430   Biso      1.000     C          0.07360499999999999           
         C11       1.0000    0.49780   0.38780   0.03840   Biso      1.000     C          -0.240281           
         C12       1.0000    0.51728   0.37200   0.10740   Biso      1.000     C          0.126127  
         C13       1.0000    0.36717   0.03900   0.48100   Biso      1.000     C          0.086362  
         C14       1.0000    0.37100   0.17300   0.44000   Biso      1.000     C          -0.160427           
         C15       1.0000    0.33458   0.09800   0.47800   Biso      1.000     C          -0.141427           
         C16       1.0000    0.44300   0.06000   0.44300   Biso      1.000     C          -0.22648200000000002          
         C17       1.0000    0.44451   0.19200   0.40000   Biso      1.000     C          0.11558299999999999           
         C18       1.0000    0.48600   0.14100   0.40900   Biso      1.000     C          0.13336900000000002           
         C19       1.0000    0.58700   0.97400   0.09436   Biso      1.000     C          -0.14544100000000001          
         C20       1.0000    0.60700   0.01100   0.16000   Biso      1.000     C          -0.15471600000000002          
         C21       1.0000    0.59800   0.02600   0.03430   Biso      1.000     C          0.07360499999999999           
         C22       1.0000    0.61220   0.11000   0.03840   Biso      1.000     C          -0.240281           
         C23       1.0000    0.62400   0.09600   0.16660   Biso      1.000     C          0.120332  
         C24       1.0000    0.96100   0.32817   0.48100   Biso      1.000     C          0.08636100000000001           
         C25       1.0000    0.82700   0.19800   0.44000   Biso      1.000     C          -0.16042599999999999          
         C26       1.0000    0.90200   0.23658   0.47800   Biso      1.000     C          -0.141426           
         C27       1.0000    0.37600   0.47200   0.83340   Biso      1.000     C          0.120335  
         C28       1.0000    0.37200   0.51728   0.89260   Biso      1.000     C          0.126119  
         C29       1.0000    0.38780   0.49780   0.96160   Biso      1.000     C          -0.240283           
         C30       1.0000    0.40200   0.42800   0.96570   Biso      1.000     C          0.073607  
         C31       1.0000    0.97400   0.58700   0.90564   Biso      1.000     C          -0.145439           
         C32       1.0000    0.01100   0.60700   0.84000   Biso      1.000     C          -0.15471500000000002          
         C33       1.0000    0.02600   0.59800   0.96570   Biso      1.000     C          0.07360499999999999           
         C34       1.0000    0.11000   0.61220   0.96160   Biso      1.000     C          -0.240281           
         C35       1.0000    0.14528   0.62800   0.89260   Biso      1.000     C          0.126127  
         C36       1.0000    0.09600   0.62400   0.83340   Biso      1.000     C          0.120334  
         C37       1.0000    0.32817   0.96100   0.51900   Biso      1.000     C          0.086362  
         C38       1.0000    0.19800   0.82700   0.56000   Biso      1.000     C          -0.160428           
         C39       1.0000    0.23658   0.90200   0.52200   Biso      1.000     C          -0.141426           
         C40       1.0000    0.38300   0.94000   0.55700   Biso      1.000     C          -0.22648200000000002          
         C41       1.0000    0.25251   0.80800   0.60000   Biso      1.000     C          0.11558199999999999           
         C42       1.0000    0.34500   0.85900   0.59100   Biso      1.000     C          0.13337000000000002           
         C43       1.0000    0.94000   0.38300   0.44300   Biso      1.000     C          -0.22648200000000002          
         C44       1.0000    0.61300   0.02600   0.90564   Biso      1.000     C          -0.14544100000000001          
         C45       1.0000    0.57200   0.97400   0.96570   Biso      1.000     C          0.07360499999999999           
         C46       1.0000    0.50220   0.89000   0.96160   Biso      1.000     C          -0.240281           
         C47       1.0000    0.48272   0.85472   0.89260   Biso      1.000     C          0.126135  
         C48       1.0000    0.52800   0.90400   0.83340   Biso      1.000     C          0.120332  
         C49       1.0000    0.63283   0.67183   0.51900   Biso      1.000     C          0.086362  
         C50       1.0000    0.62900   0.80200   0.56000   Biso      1.000     C          -0.16042599999999999          
         C51       1.0000    0.66542   0.76342   0.52200   Biso      1.000     C          -0.141426           
         C52       1.0000    0.55700   0.61700   0.55700   Biso      1.000     C          -0.226483           
         C53       1.0000    0.55549   0.74749   0.60000   Biso      1.000     C          0.11558299999999999           
         C54       1.0000    0.51400   0.65500   0.59100   Biso      1.000     C          0.13337000000000002           
         C55       1.0000    0.41300   0.38700   0.90564   Biso      1.000     C          -0.145438           
         C56       1.0000    0.39300   0.40400   0.84000   Biso      1.000     C          -0.15471500000000002          
         C57       1.0000    0.59600   0.98900   0.84000   Biso      1.000     C          -0.154717           
         C58       1.0000    0.80800   0.25251   0.40000   Biso      1.000     C          0.115586  
         C59       1.0000    0.62800   0.14528   0.10740   Biso      1.000     C          0.126135  
         C60       1.0000    0.02600   0.61300   0.09436   Biso      1.000     C          -0.145438           
         C61       1.0000    0.85900   0.34500   0.40900   Biso      1.000     C          0.13337000000000002           
         C62       1.0000    0.65500   0.51400   0.40900   Biso      1.000     C          0.13337100000000002           
         C63       1.0000    0.74749   0.55549   0.40000   Biso      1.000     C          0.115586  
         C64       1.0000    0.76342   0.66542   0.47800   Biso      1.000     C          -0.141434           
         C65       1.0000    0.80200   0.62900   0.44000   Biso      1.000     C          -0.160416           
         C66       1.0000    0.67183   0.63283   0.48100   Biso      1.000     C          0.086365  
         C67       1.0000    0.61700   0.55700   0.44300   Biso      1.000     C          -0.22648200000000002          
         C68       1.0000    0.90400   0.52800   0.16660   Biso      1.000     C          0.120335  
         C69       1.0000    0.85472   0.48272   0.10740   Biso      1.000     C          0.126119  
         C70       1.0000    0.89000   0.50220   0.03840   Biso      1.000     C          -0.240283           
         C71       1.0000    0.97400   0.57200   0.03430   Biso      1.000     C          0.073607  
         C72       1.0000    0.98900   0.59600   0.16000   Biso      1.000     C          -0.15471600000000002          
         Co1       1.0000    0.33333   0.66666   0.92370   Biso      1.000     Co          0.334755  
         Co2       1.0000    0.66667   0.33334   0.07630   Biso      1.000     Co          0.334754  
         H1        1.0000    0.61123   0.14078   0.99937   Biso      1.000     H          0.132375  
         H2        1.0000    0.52955   0.38877   0.99937   Biso      1.000     H          0.132374  
         H3        1.0000    0.28398   0.08329   0.50293   Biso      1.000     H          0.115932  
         H4        1.0000    0.46287   0.02058   0.43944   Biso      1.000     H          0.11860699999999999           
         H5        1.0000    0.56665   0.91448   0.08920   Biso      1.000     H          0.123056  
         H6        1.0000    0.60939   0.98010   0.19823   Biso      1.000     H          0.11381400000000001           
         H7        1.0000    0.79003   0.13797   0.44037   Biso      1.000     H          0.11501800000000001           
         H8        1.0000    0.79931   0.71602   0.50293   Biso      1.000     H          0.115934  
         H9        1.0000    0.97942   0.44229   0.43944   Biso      1.000     H          0.11860699999999999           
         H10       1.0000    0.08552   0.65217   0.08920   Biso      1.000     H          0.12305799999999999           
         H11       1.0000    0.01990   0.62929   0.19823   Biso      1.000     H          0.113817  
         H12       1.0000    0.85922   0.47045   0.99937   Biso      1.000     H          0.132374  
         H13       1.0000    0.86203   0.65206   0.44037   Biso      1.000     H          0.11501700000000001           
         H14       1.0000    0.37071   0.39061   0.19823   Biso      1.000     H          0.11381500000000001           
         H15       1.0000    0.55771   0.53713   0.43944   Biso      1.000     H          0.11860699999999999           
         H16       1.0000    0.91671   0.20069   0.50293   Biso      1.000     H          0.115933  
         H17       1.0000    0.34783   0.43335   0.08920   Biso      1.000     H          0.123057  
         H18       1.0000    0.34794   0.20997   0.44037   Biso      1.000     H          0.11501800000000001           
         H19       1.0000    0.08329   0.28398   0.49707   Biso      1.000     H          0.115933  
         H20       1.0000    0.91448   0.56665   0.91080   Biso      1.000     H          0.123057  
         H21       1.0000    0.98010   0.60939   0.80177   Biso      1.000     H          0.11381500000000001           
         H22       1.0000    0.14078   0.61123   0.00063   Biso      1.000     H          0.132374  
         H23       1.0000    0.13797   0.79003   0.55963   Biso      1.000     H          0.11501800000000001           
         H24       1.0000    0.20069   0.91671   0.49707   Biso      1.000     H          0.115932  
         H25       1.0000    0.44229   0.97942   0.56056   Biso      1.000     H          0.11860699999999999           
         H26       1.0000    0.02058   0.46287   0.56056   Biso      1.000     H          0.11860799999999999           
         H27       1.0000    0.62929   0.01990   0.80177   Biso      1.000     H          0.11381500000000001           
         H28       1.0000    0.65217   0.08552   0.91080   Biso      1.000     H          0.123056  
         H29       1.0000    0.65206   0.86203   0.55963   Biso      1.000     H          0.11501700000000001           
         H30       1.0000    0.71602   0.79931   0.49707   Biso      1.000     H          0.115933  
         H31       1.0000    0.53713   0.55771   0.56056   Biso      1.000     H          0.11860699999999999           
         H32       1.0000    0.43335   0.34783   0.91080   Biso      1.000     H          0.123057  
         H33       1.0000    0.39061   0.37071   0.80177   Biso      1.000     H          0.11381500000000001           
         H34       1.0000    0.38877   0.52955   0.00063   Biso      1.000     H          0.132374  
         H35       1.0000    0.20997   0.34794   0.55963   Biso      1.000     H          0.11501800000000001           
         H36       1.0000    0.47045   0.85922   0.00063   Biso      1.000     H          0.132375  
         N1        1.0000    0.36700   0.51400   0.77650   Biso      1.000     N          -0.14061700000000002          
         N2        1.0000    0.17300   0.55500   0.63400   Biso      1.000     N          -0.14044700000000002          
         N3        1.0000    0.24600   0.56134   0.66400   Biso      1.000     N          -0.019527000000000003         
         N4        1.0000    0.51400   0.36700   0.22350   Biso      1.000     N          -0.140618           
         N5        1.0000    0.58299   0.35900   0.12930   Biso      1.000     N          -0.20413199999999998          
         N6        1.0000    0.57800   0.35600   0.19920   Biso      1.000     N          -0.005424           
         N7        1.0000    0.35600   0.57800   0.80080   Biso      1.000     N          -0.005443           
         N8        1.0000    0.26100   0.49990   0.64000   Biso      1.000     N          -0.122603           
         N9        1.0000    0.35900   0.58299   0.87070   Biso      1.000     N          -0.204097           
         N10       1.0000    0.48600   0.85300   0.77650   Biso      1.000     N          -0.14061600000000002          
         N11       1.0000    0.43866   0.68466   0.66400   Biso      1.000     N          -0.019575           
         N12       1.0000    0.14700   0.63300   0.77650   Biso      1.000     N          -0.140618           
         N13       1.0000    0.38200   0.82700   0.63400   Biso      1.000     N          -0.140444           
         N14       1.0000    0.31534   0.75400   0.66400   Biso      1.000     N          -0.019554           
         N15       1.0000    0.23890   0.73900   0.64000   Biso      1.000     N          -0.12260499999999999          
         N16       1.0000    0.41701   0.77601   0.87070   Biso      1.000     N          -0.20416700000000002          
         N17       1.0000    0.42200   0.77800   0.80080   Biso      1.000     N          -0.005416           
         N18       1.0000    0.55500   0.17300   0.36600   Biso      1.000     N          -0.140444           
         N19       1.0000    0.44500   0.61800   0.63400   Biso      1.000     N          -0.140435           
         N20       1.0000    0.50010   0.76110   0.64000   Biso      1.000     N          -0.122592           
         N21       1.0000    0.56134   0.24600   0.33600   Biso      1.000     N          -0.019555           
         N22       1.0000    0.22399   0.64100   0.87070   Biso      1.000     N          -0.20413199999999998          
         N23       1.0000    0.64100   0.22399   0.12930   Biso      1.000     N          -0.20416700000000002          
         N24       1.0000    0.22200   0.64400   0.80080   Biso      1.000     N          -0.005425           
         N25       1.0000    0.76110   0.50010   0.36000   Biso      1.000     N          -0.12263800000000001          
         N26       1.0000    0.49990   0.26100   0.36000   Biso      1.000     N          -0.12260399999999999          
         N27       1.0000    0.61800   0.44500   0.36600   Biso      1.000     N          -0.140451           
         N28       1.0000    0.85300   0.48600   0.22350   Biso      1.000     N          -0.140618           
         N29       1.0000    0.77800   0.42200   0.19920   Biso      1.000     N          -0.005443           
         N30       1.0000    0.68466   0.43866   0.33600   Biso      1.000     N          -0.019492           
         N31       1.0000    0.73900   0.23890   0.36000   Biso      1.000     N          -0.122628           
         N32       1.0000    0.75400   0.31534   0.33600   Biso      1.000     N          -0.019540000000000002         
         N33       1.0000    0.82700   0.38200   0.36600   Biso      1.000     N          -0.140438           
         N34       1.0000    0.63300   0.14700   0.22350   Biso      1.000     N          -0.14061600000000002          
         N35       1.0000    0.64400   0.22200   0.19920   Biso      1.000     N          -0.005415           
         N36       1.0000    0.77601   0.41701   0.12930   Biso      1.000     N          -0.204097           
         Zn1       1.0000    0.33333   0.66666   0.73500   Biso      1.000     Zn          0.464779  
         Zn2       1.0000    0.66667   0.33334   0.26500   Biso      1.000     Zn          0.46477299999999994           
         Zn3       1.0000    0.12750   0.63190   0.67150   Biso      1.000     Zn          0.060846000000000004          
         Zn4       1.0000    0.50440   0.87250   0.67150   Biso      1.000     Zn          0.060846000000000004          
         Zn5       1.0000    0.36810   0.49560   0.67150   Biso      1.000     Zn          0.060841  
         Zn6       1.0000    0.49560   0.36810   0.32850   Biso      1.000     Zn          0.060845  
         Zn7       1.0000    0.63190   0.12750   0.32850   Biso      1.000     Zn          0.06085   
         Zn8       1.0000    0.87250   0.50440   0.32850   Biso      1.000     Zn          0.060844 