
##########################################################################
#               Crystallographic Information Format file
#               Produced by PyCifRW module
#
#  This is a CIF file.  CIF has been adopted by the International
#  Union of Crystallography as the standard for data archiving and
#  transmission.
#
#  For information on this file format, follow the CIF links at
#  http://www.iucr.org
##########################################################################

data_image0

_cell_length_a                          26.211
_cell_length_b                          13.5295
_cell_length_c                          6.7481
_cell_angle_alpha                       90
_cell_angle_beta                        92.294
_cell_angle_gamma                       90
_symmetry_space_group_name_H-M          'P 1'
_symmetry_int_tables_number             1
loop_
  _symmetry_equiv_pos_as_xyz
         'x, y, z' 
loop_
  _atom_site_label
  _atom_site_occupancy
  _atom_site_fract_x
  _atom_site_fract_y
  _atom_site_fract_z
  _atom_site_thermal_displace_type
  _atom_site_B_iso_or_equiv
  _atom_site_type_symbol
  _atom_site_charge
         C1        1.0000    0.78143   0.96490   0.11290   Biso      1.000     C          -0.102894           
         C2        1.0000    0.16767   0.63720   0.04280   Biso      1.000     C          0.58037   
         C3        1.0000    0.79941   0.54640   0.43380   Biso      1.000     C          -0.046304           
         C4        1.0000    0.74661   0.55240   0.41090   Biso      1.000     C          -0.081847           
         C5        1.0000    0.25339   0.55240   0.08910   Biso      1.000     C          -0.081852           
         C6        1.0000    0.83233   0.63720   0.45720   Biso      1.000     C          0.58037   
         C7        1.0000    0.20059   0.54640   0.06620   Biso      1.000     C          -0.0463   
         C8        1.0000    0.24661   0.94760   0.91090   Biso      1.000     C          -0.081852           
         C9        1.0000    0.29941   0.95360   0.93380   Biso      1.000     C          -0.0463   
         C10       1.0000    0.17779   0.45320   0.06680   Biso      1.000     C          0.062785  
         C11       1.0000    0.32221   0.04680   0.93320   Biso      1.000     C          0.062785  
         C12       1.0000    0.25525   0.37540   0.11540   Biso      1.000     C          0.079246  
         C13       1.0000    0.82221   0.45320   0.43320   Biso      1.000     C          0.062786  
         C14       1.0000    0.24475   0.12460   0.88460   Biso      1.000     C          0.079246  
         C15       1.0000    0.83883   0.96420   0.13760   Biso      1.000     C          0.69339   
         C16       1.0000    0.66767   0.86280   0.54280   Biso      1.000     C          0.58037   
         C17       1.0000    0.75525   0.87540   0.11540   Biso      1.000     C          0.079246  
         C18       1.0000    0.28143   0.46490   0.11290   Biso      1.000     C          -0.102894           
         C19       1.0000    0.67779   0.95320   0.06680   Biso      1.000     C          0.062786  
         C20       1.0000    0.33883   0.46420   0.13760   Biso      1.000     C          0.69339   
         C21       1.0000    0.70059   0.04640   0.06620   Biso      1.000     C          -0.046305           
         C22       1.0000    0.75339   0.05240   0.08910   Biso      1.000     C          -0.081847           
         C23       1.0000    0.20059   0.45360   0.56620   Biso      1.000     C          -0.046304           
         C24       1.0000    0.66767   0.13720   0.04280   Biso      1.000     C          0.58037   
         C25       1.0000    0.25339   0.44760   0.58910   Biso      1.000     C          -0.081847           
         C26       1.0000    0.21857   0.03510   0.88710   Biso      1.000     C          -0.102894           
         C27       1.0000    0.16117   0.03580   0.86240   Biso      1.000     C          0.69339   
         C28       1.0000    0.74475   0.37540   0.38460   Biso      1.000     C          0.079246  
         C29       1.0000    0.66117   0.46420   0.36240   Biso      1.000     C          0.69339   
         C30       1.0000    0.83233   0.36280   0.95720   Biso      1.000     C          0.58037   
         C31       1.0000    0.75339   0.94760   0.58910   Biso      1.000     C          -0.081852           
         C32       1.0000    0.74661   0.44760   0.91090   Biso      1.000     C          -0.081852           
         C33       1.0000    0.79941   0.45360   0.93380   Biso      1.000     C          -0.0463   
         C34       1.0000    0.70059   0.95360   0.56620   Biso      1.000     C          -0.0463   
         C35       1.0000    0.82221   0.54680   0.93320   Biso      1.000     C          0.062785  
         C36       1.0000    0.67779   0.04680   0.56680   Biso      1.000     C          0.062785  
         C37       1.0000    0.16117   0.96420   0.36240   Biso      1.000     C          0.69339   
         C38       1.0000    0.21857   0.96490   0.38710   Biso      1.000     C          -0.102893           
         C39       1.0000    0.24475   0.87540   0.38460   Biso      1.000     C          0.079245  
         C40       1.0000    0.75525   0.12460   0.61540   Biso      1.000     C          0.079246  
         C41       1.0000    0.32221   0.95320   0.43320   Biso      1.000     C          0.062785  
         C42       1.0000    0.71857   0.46490   0.38710   Biso      1.000     C          -0.102894           
         C43       1.0000    0.78143   0.03510   0.61290   Biso      1.000     C          -0.102894           
         C44       1.0000    0.24661   0.05240   0.41090   Biso      1.000     C          -0.081852           
         C45       1.0000    0.83883   0.03580   0.63760   Biso      1.000     C          0.69339   
         C46       1.0000    0.33233   0.13720   0.45720   Biso      1.000     C          0.58037   
         C47       1.0000    0.33883   0.53580   0.63760   Biso      1.000     C          0.69339   
         C48       1.0000    0.74475   0.62460   0.88460   Biso      1.000     C          0.079245  
         C49       1.0000    0.71857   0.53510   0.88710   Biso      1.000     C          -0.102894           
         C50       1.0000    0.66117   0.53580   0.86240   Biso      1.000     C          0.69339   
         C51       1.0000    0.28143   0.53510   0.61290   Biso      1.000     C          -0.102894           
         C52       1.0000    0.25525   0.62460   0.61540   Biso      1.000     C          0.079246  
         C53       1.0000    0.33233   0.86280   0.95720   Biso      1.000     C          0.58037   
         C54       1.0000    0.17779   0.54680   0.56680   Biso      1.000     C          0.062786  
         C55       1.0000    0.29941   0.04640   0.43380   Biso      1.000     C          -0.0463   
         C56       1.0000    0.16767   0.36280   0.54280   Biso      1.000     C          0.58037   
         Ce1       1.0000    0.89652   0.80716   0.49037   Biso      1.000     Ce          2.102422  
         Ce2       1.0000    0.10348   0.19284   0.50963   Biso      1.000     Ce          2.102423  
         Ce3       1.0000    0.39652   0.30716   0.49037   Biso      1.000     Ce          2.102422  
         Ce4       1.0000    0.39652   0.69284   0.99037   Biso      1.000     Ce          2.102422  
         Ce5       1.0000    0.89652   0.19284   0.99037   Biso      1.000     Ce          2.102422  
         Ce6       1.0000    0.60348   0.69284   0.50963   Biso      1.000     Ce          2.102423  
         Ce7       1.0000    0.60348   0.30716   0.00963   Biso      1.000     Ce          2.102423  
         Ce8       1.0000    0.10348   0.80716   0.00963   Biso      1.000     Ce          2.102423  
         H1        1.0000    0.76980   0.88670   0.58860   Biso      1.000     H          0.124551  
         H2        1.0000    0.73020   0.38670   0.91140   Biso      1.000     H          0.124551  
         H3        1.0000    0.85750   0.55070   0.95060   Biso      1.000     H          0.111295  
         H4        1.0000    0.64250   0.05070   0.54940   Biso      1.000     H          0.111295  
         H5        1.0000    0.72610   0.68260   0.86540   Biso      1.000     H          0.10233   
         H6        1.0000    0.77390   0.18260   0.63460   Biso      1.000     H          0.10233   
         H7        1.0000    0.22610   0.81740   0.36540   Biso      1.000     H          0.10233   
         H8        1.0000    0.35750   0.94930   0.45060   Biso      1.000     H          0.111295  
         H9        1.0000    0.23020   0.11330   0.41140   Biso      1.000     H          0.124551  
         H10       1.0000    0.27390   0.68260   0.63460   Biso      1.000     H          0.10233   
         H11       1.0000    0.23020   0.88670   0.91140   Biso      1.000     H          0.124551  
         H12       1.0000    0.72610   0.31740   0.36540   Biso      1.000     H          0.10233   
         H13       1.0000    0.85750   0.44930   0.45060   Biso      1.000     H          0.111295  
         H14       1.0000    0.26980   0.61330   0.08860   Biso      1.000     H          0.124551  
         H15       1.0000    0.73020   0.61330   0.41140   Biso      1.000     H          0.124551  
         H16       1.0000    0.14250   0.44930   0.04940   Biso      1.000     H          0.111295  
         H17       1.0000    0.35750   0.05070   0.95060   Biso      1.000     H          0.111295  
         H18       1.0000    0.27390   0.31740   0.13460   Biso      1.000     H          0.10233   
         H19       1.0000    0.22610   0.18260   0.86540   Biso      1.000     H          0.10233   
         H20       1.0000    0.77390   0.81740   0.13460   Biso      1.000     H          0.10233   
         H21       1.0000    0.64250   0.94930   0.04940   Biso      1.000     H          0.111295  
         H22       1.0000    0.76980   0.11330   0.08860   Biso      1.000     H          0.124551  
         H23       1.0000    0.26980   0.38670   0.58860   Biso      1.000     H          0.124551  
         H24       1.0000    0.14250   0.55070   0.54940   Biso      1.000     H          0.111295  
         N1        1.0000    0.79573   0.63100   0.90880   Biso      1.000     N          -0.274083           
         N2        1.0000    0.20427   0.63100   0.59120   Biso      1.000     N          -0.274083           
         N3        1.0000    0.29573   0.13100   0.90880   Biso      1.000     N          -0.274083           
         N4        1.0000    0.70427   0.13100   0.59120   Biso      1.000     N          -0.274083           
         N5        1.0000    0.29573   0.86900   0.40880   Biso      1.000     N          -0.274083           
         N6        1.0000    0.20427   0.36900   0.09120   Biso      1.000     N          -0.274083           
         N7        1.0000    0.70427   0.86900   0.09120   Biso      1.000     N          -0.274083           
         N8        1.0000    0.79573   0.36900   0.40880   Biso      1.000     N          -0.274083           
         O1        1.0000    0.18652   0.27911   0.57490   Biso      1.000     O          -0.619323           
         O2        1.0000    0.62076   0.12650   0.99130   Biso      1.000     O          -0.635415           
         O3        1.0000    0.68652   0.22089   0.07490   Biso      1.000     O          -0.619323           
         O4        1.0000    0.54463   0.63920   0.20700   Biso      1.000     O          -0.742039           
         O5        1.0000    0.51627   0.76100   0.42280   Biso      1.000     O          -0.719208           
         O6        1.0000    0.64023   0.38475   0.30450   Biso      1.000     O          -0.684416           
         O7        1.0000    0.63721   0.54084   0.40180   Biso      1.000     O          -0.669644           
         O8        1.0000    0.81348   0.27911   0.92510   Biso      1.000     O          -0.619323           
         O9        1.0000    0.87924   0.37350   0.00870   Biso      1.000     O          -0.635415           
         O10       1.0000    0.63721   0.45916   0.90180   Biso      1.000     O          -0.669644           
         O11       1.0000    0.64023   0.61525   0.80450   Biso      1.000     O          -0.684416           
         O12       1.0000    0.51627   0.23900   0.92280   Biso      1.000     O          -0.719208           
         O13       1.0000    0.54463   0.36080   0.70700   Biso      1.000     O          -0.742039           
         O14       1.0000    0.87924   0.62650   0.50870   Biso      1.000     O          -0.635415           
         O15       1.0000    0.81348   0.72089   0.42510   Biso      1.000     O          -0.619323           
         O16       1.0000    0.04463   0.13920   0.20700   Biso      1.000     O          -0.742039           
         O17       1.0000    0.01627   0.26100   0.42280   Biso      1.000     O          -0.719208           
         O18       1.0000    0.14023   0.88475   0.30450   Biso      1.000     O          -0.684416           
         O19       1.0000    0.13721   0.04084   0.40180   Biso      1.000     O          -0.669644           
         O20       1.0000    0.37924   0.12650   0.50870   Biso      1.000     O          -0.635415           
         O21       1.0000    0.31348   0.22089   0.42510   Biso      1.000     O          -0.619323           
         O22       1.0000    0.86279   0.04084   0.09820   Biso      1.000     O          -0.669644           
         O23       1.0000    0.95537   0.86080   0.79300   Biso      1.000     O          -0.742039           
         O24       1.0000    0.85977   0.88475   0.19550   Biso      1.000     O          -0.684416           
         O25       1.0000    0.95537   0.13920   0.29300   Biso      1.000     O          -0.742039           
         O26       1.0000    0.36279   0.45916   0.59820   Biso      1.000     O          -0.669644           
         O27       1.0000    0.35977   0.61525   0.69550   Biso      1.000     O          -0.684416           
         O28       1.0000    0.48373   0.23900   0.57720   Biso      1.000     O          -0.719208           
         O29       1.0000    0.45537   0.36080   0.79300   Biso      1.000     O          -0.742039           
         O30       1.0000    0.98373   0.73900   0.57720   Biso      1.000     O          -0.719208           
         O31       1.0000    0.85977   0.11525   0.69550   Biso      1.000     O          -0.684416           
         O32       1.0000    0.86279   0.95916   0.59820   Biso      1.000     O          -0.669644           
         O33       1.0000    0.62076   0.87350   0.49130   Biso      1.000     O          -0.635415           
         O34       1.0000    0.68652   0.77911   0.57490   Biso      1.000     O          -0.619323           
         O35       1.0000    0.98373   0.26100   0.07720   Biso      1.000     O          -0.719208           
         O36       1.0000    0.12076   0.37350   0.49130   Biso      1.000     O          -0.635415           
         O37       1.0000    0.45537   0.63920   0.29300   Biso      1.000     O          -0.742039           
         O38       1.0000    0.35977   0.38475   0.19550   Biso      1.000     O          -0.684416           
         O39       1.0000    0.36279   0.54084   0.09820   Biso      1.000     O          -0.669644           
         O40       1.0000    0.12076   0.62650   0.99130   Biso      1.000     O          -0.635415           
         O41       1.0000    0.18652   0.72089   0.07490   Biso      1.000     O          -0.619323           
         O42       1.0000    0.31348   0.77911   0.92510   Biso      1.000     O          -0.619323           
         O43       1.0000    0.37924   0.87350   0.00870   Biso      1.000     O          -0.635415           
         O44       1.0000    0.13721   0.95916   0.90180   Biso      1.000     O          -0.669644           
         O45       1.0000    0.14023   0.11525   0.80450   Biso      1.000     O          -0.684416           
         O46       1.0000    0.01627   0.73900   0.92280   Biso      1.000     O          -0.719208           
         O47       1.0000    0.04463   0.86080   0.70700   Biso      1.000     O          -0.742039           
         O48       1.0000    0.48373   0.76100   0.07720   Biso      1.000     O          -0.719208           
         S1        1.0000    0.50000   0.70065   0.25000   Biso      1.000     S          1.437572  
         S2        1.0000    0.00000   0.79935   0.75000   Biso      1.000     S          1.437572  
         S3        1.0000    0.00000   0.20065   0.25000   Biso      1.000     S          1.437572  
         S4        1.0000    0.50000   0.29935   0.75000   Biso      1.000     S          1.437572 