
##########################################################################
#               Crystallographic Information Format file
#               Produced by PyCifRW module
#
#  This is a CIF file.  CIF has been adopted by the International
#  Union of Crystallography as the standard for data archiving and
#  transmission.
#
#  For information on this file format, follow the CIF links at
#  http://www.iucr.org
##########################################################################

data_image0

_cell_length_a                          11.361
_cell_length_b                          12.645
_cell_length_c                          14.775
_cell_angle_alpha                       90
_cell_angle_beta                        90
_cell_angle_gamma                       90
_symmetry_space_group_name_H-M          'P 1'
_symmetry_int_tables_number             1
loop_
  _symmetry_equiv_pos_as_xyz
         'x, y, z' 
loop_
  _atom_site_label
  _atom_site_occupancy
  _atom_site_fract_x
  _atom_site_fract_y
  _atom_site_fract_z
  _atom_site_thermal_displace_type
  _atom_site_B_iso_or_equiv
  _atom_site_type_symbol
  _atom_site_charge
         C1        1.0000    0.19887   0.39254   0.08103   Biso      1.000     C          -0.125655           
         C2        1.0000    0.87180   0.09183   0.23331   Biso      1.000     C          -0.17787  
         C3        1.0000    0.75010   0.08808   0.23337   Biso      1.000     C          0.094626  
         C4        1.0000    0.91913   0.59107   0.41916   Biso      1.000     C          0.25606100000000004           
         C5        1.0000    0.80113   0.39254   0.41897   Biso      1.000     C          -0.125655           
         C6        1.0000    0.71975   0.31211   0.41896   Biso      1.000     C          -0.150337           
         C7        1.0000    0.53690   0.15200   0.41987   Biso      1.000     C          0.31338699999999997           
         C8        1.0000    0.87180   0.90817   0.26669   Biso      1.000     C          -0.17787  
         C9        1.0000    0.75010   0.91192   0.26663   Biso      1.000     C          0.094626  
         C10       1.0000    0.91913   0.40893   0.08084   Biso      1.000     C          0.25606100000000004           
         C11       1.0000    0.80113   0.60746   0.08103   Biso      1.000     C          -0.125655           
         C12       1.0000    0.71975   0.68789   0.08104   Biso      1.000     C          -0.150337           
         C13       1.0000    0.53690   0.84800   0.08013   Biso      1.000     C          0.31338699999999997           
         C14       1.0000    0.12820   0.09183   0.26669   Biso      1.000     C          -0.17787  
         C15       1.0000    0.24990   0.08808   0.26663   Biso      1.000     C          0.094626  
         C16       1.0000    0.08087   0.59107   0.08084   Biso      1.000     C          0.25606100000000004           
         C17       1.0000    0.28025   0.31211   0.08104   Biso      1.000     C          -0.150337           
         C18       1.0000    0.46310   0.15200   0.08013   Biso      1.000     C          0.313388  
         C19       1.0000    0.87180   0.09183   0.76669   Biso      1.000     C          -0.17787  
         C20       1.0000    0.75010   0.08808   0.76663   Biso      1.000     C          0.094626  
         C21       1.0000    0.91913   0.59107   0.58084   Biso      1.000     C          0.25606   
         C22       1.0000    0.71975   0.31211   0.58104   Biso      1.000     C          -0.150337           
         C23       1.0000    0.46310   0.84800   0.41987   Biso      1.000     C          0.313388  
         C24       1.0000    0.28025   0.68789   0.41896   Biso      1.000     C          -0.150337           
         C25       1.0000    0.19887   0.60746   0.41897   Biso      1.000     C          -0.125655           
         C26       1.0000    0.08087   0.40893   0.41916   Biso      1.000     C          0.25606100000000004           
         C27       1.0000    0.93330   0.52194   0.50000   Biso      1.000     C          0.020265000000000002          
         C28       1.0000    0.84170   0.43420   0.50000   Biso      1.000     C          -0.000489           
         C29       1.0000    0.67443   0.27193   0.50000   Biso      1.000     C          0.12981800000000002           
         C30       1.0000    0.58293   0.19236   0.50000   Biso      1.000     C          -0.232145           
         C31       1.0000    0.06670   0.47806   0.50000   Biso      1.000     C          0.020265000000000002          
         C32       1.0000    0.15830   0.56580   0.50000   Biso      1.000     C          -0.000489           
         C33       1.0000    0.32557   0.72807   0.50000   Biso      1.000     C          0.12981900000000002           
         C34       1.0000    0.41707   0.80764   0.50000   Biso      1.000     C          -0.232145           
         C35       1.0000    0.06670   0.52194   0.00000   Biso      1.000     C          0.020265000000000002          
         C36       1.0000    0.15830   0.43420   0.00000   Biso      1.000     C          -0.000489           
         C37       1.0000    0.53690   0.15200   0.58013   Biso      1.000     C          0.313388  
         C38       1.0000    0.32557   0.27193   0.00000   Biso      1.000     C          0.12981800000000002           
         C39       1.0000    0.93330   0.47806   0.00000   Biso      1.000     C          0.020265000000000002          
         C40       1.0000    0.84170   0.56580   0.00000   Biso      1.000     C          -0.000489           
         C41       1.0000    0.67443   0.72807   0.00000   Biso      1.000     C          0.12981800000000002           
         C42       1.0000    0.58293   0.80764   0.00000   Biso      1.000     C          -0.232145           
         C43       1.0000    0.93465   0.00000   0.25000   Biso      1.000     C          0.110122  
         C44       1.0000    0.06535   0.00000   0.25000   Biso      1.000     C          0.11012000000000001           
         C45       1.0000    0.06535   0.00000   0.75000   Biso      1.000     C          0.110122  
         C46       1.0000    0.93465   0.00000   0.75000   Biso      1.000     C          0.11012000000000001           
         C47       1.0000    0.12820   0.90817   0.23331   Biso      1.000     C          -0.17787  
         C48       1.0000    0.24990   0.91192   0.23337   Biso      1.000     C          0.094626  
         C49       1.0000    0.41707   0.19236   0.00000   Biso      1.000     C          -0.232145           
         C50       1.0000    0.12820   0.90817   0.76669   Biso      1.000     C          -0.177871           
         C51       1.0000    0.80113   0.39254   0.58103   Biso      1.000     C          -0.125653           
         C52       1.0000    0.08087   0.40893   0.58084   Biso      1.000     C          0.25606   
         C53       1.0000    0.24990   0.91192   0.76663   Biso      1.000     C          0.094626  
         C54       1.0000    0.53690   0.84800   0.91987   Biso      1.000     C          0.313388  
         C55       1.0000    0.80113   0.60746   0.91897   Biso      1.000     C          -0.125653           
         C56       1.0000    0.91913   0.40893   0.91916   Biso      1.000     C          0.25606   
         C57       1.0000    0.75010   0.91192   0.73337   Biso      1.000     C          0.094627  
         C58       1.0000    0.87180   0.90817   0.73331   Biso      1.000     C          -0.177871           
         C59       1.0000    0.46310   0.15200   0.91987   Biso      1.000     C          0.313388  
         C60       1.0000    0.28025   0.31211   0.91896   Biso      1.000     C          -0.150338           
         C61       1.0000    0.71975   0.68789   0.91896   Biso      1.000     C          -0.150338           
         C62       1.0000    0.19887   0.39254   0.91897   Biso      1.000     C          -0.125653           
         C63       1.0000    0.08087   0.59107   0.91916   Biso      1.000     C          0.25606   
         C64       1.0000    0.24990   0.08808   0.73337   Biso      1.000     C          0.094627  
         C65       1.0000    0.12820   0.09183   0.73331   Biso      1.000     C          -0.177872           
         C66       1.0000    0.46310   0.84800   0.58013   Biso      1.000     C          0.313388  
         C67       1.0000    0.19887   0.60746   0.58103   Biso      1.000     C          -0.125653           
         C68       1.0000    0.28025   0.68789   0.58104   Biso      1.000     C          -0.150338           
         H1        1.0000    0.82960   0.42010   0.63670   Biso      1.000     H          0.113376  
         H2        1.0000    0.69380   0.28330   0.63700   Biso      1.000     H          0.116176  
         H3        1.0000    0.08830   0.84350   0.77800   Biso      1.000     H          0.130333  
         H4        1.0000    0.29220   0.84880   0.77920   Biso      1.000     H          0.096045  
         H5        1.0000    0.17040   0.57990   0.63670   Biso      1.000     H          0.113376  
         H6        1.0000    0.30620   0.71670   0.63700   Biso      1.000     H          0.116176  
         H7        1.0000    0.17040   0.42010   0.86330   Biso      1.000     H          0.113376  
         H8        1.0000    0.29220   0.15120   0.72080   Biso      1.000     H          0.096044  
         H9        1.0000    0.82960   0.57990   0.86330   Biso      1.000     H          0.113376  
         H10       1.0000    0.30620   0.28330   0.86300   Biso      1.000     H          0.116176  
         H11       1.0000    0.91170   0.84350   0.72200   Biso      1.000     H          0.130333  
         H12       1.0000    0.70780   0.84880   0.72080   Biso      1.000     H          0.096044  
         H13       1.0000    0.70780   0.15120   0.77920   Biso      1.000     H          0.096045  
         H14       1.0000    0.69380   0.71670   0.86300   Biso      1.000     H          0.116176  
         H15       1.0000    0.08830   0.15650   0.72200   Biso      1.000     H          0.130333  
         H16       1.0000    0.91170   0.15650   0.77800   Biso      1.000     H          0.130333  
         H17       1.0000    0.69380   0.71670   0.13700   Biso      1.000     H          0.116176  
         H18       1.0000    0.17040   0.42010   0.13670   Biso      1.000     H          0.113376  
         H19       1.0000    0.08830   0.84350   0.22200   Biso      1.000     H          0.130333  
         H20       1.0000    0.30620   0.28330   0.13700   Biso      1.000     H          0.116176  
         H21       1.0000    0.17040   0.57990   0.36330   Biso      1.000     H          0.113376  
         H22       1.0000    0.30620   0.71670   0.36300   Biso      1.000     H          0.116176  
         H23       1.0000    0.91170   0.15650   0.22200   Biso      1.000     H          0.130333  
         H24       1.0000    0.70780   0.15120   0.22080   Biso      1.000     H          0.096045  
         H25       1.0000    0.29220   0.84880   0.22080   Biso      1.000     H          0.096045  
         H26       1.0000    0.69380   0.28330   0.36300   Biso      1.000     H          0.116176  
         H27       1.0000    0.91170   0.84350   0.27800   Biso      1.000     H          0.130333  
         H28       1.0000    0.70780   0.84880   0.27920   Biso      1.000     H          0.096045  
         H29       1.0000    0.82960   0.57990   0.13670   Biso      1.000     H          0.113376  
         H30       1.0000    0.08830   0.15650   0.27800   Biso      1.000     H          0.130333  
         H31       1.0000    0.29220   0.15120   0.27920   Biso      1.000     H          0.096045  
         H32       1.0000    0.82960   0.42010   0.36330   Biso      1.000     H          0.113376  
         N1        1.0000    0.50048   0.88025   0.14743   Biso      1.000     N          -0.440381           
         N2        1.0000    0.90630   0.35832   0.14269   Biso      1.000     N          -0.32474200000000003          
         N3        1.0000    0.50048   0.11975   0.35257   Biso      1.000     N          -0.440381           
         N4        1.0000    0.90630   0.64168   0.35731   Biso      1.000     N          -0.32474200000000003          
         N5        1.0000    0.31054   0.00000   0.75000   Biso      1.000     N          -0.211898           
         N6        1.0000    0.09370   0.35832   0.35731   Biso      1.000     N          -0.32474200000000003          
         N7        1.0000    0.09370   0.64168   0.14269   Biso      1.000     N          -0.32474200000000003          
         N8        1.0000    0.68946   0.00000   0.75000   Biso      1.000     N          -0.211898           
         N9        1.0000    0.49952   0.88025   0.35257   Biso      1.000     N          -0.440381           
         N10       1.0000    0.49952   0.11975   0.14743   Biso      1.000     N          -0.440381           
         N11       1.0000    0.68946   0.00000   0.25000   Biso      1.000     N          -0.211898           
         N12       1.0000    0.50048   0.11975   0.64743   Biso      1.000     N          -0.440381           
         N13       1.0000    0.09370   0.35832   0.64269   Biso      1.000     N          -0.32474200000000003          
         N14       1.0000    0.49952   0.88025   0.64743   Biso      1.000     N          -0.440381           
         N15       1.0000    0.09370   0.64168   0.85731   Biso      1.000     N          -0.32474200000000003          
         N16       1.0000    0.49952   0.11975   0.85257   Biso      1.000     N          -0.440381           
         N17       1.0000    0.90630   0.35832   0.85731   Biso      1.000     N          -0.32474200000000003          
         N18       1.0000    0.50048   0.88025   0.85257   Biso      1.000     N          -0.440381           
         N19       1.0000    0.31054   0.00000   0.25000   Biso      1.000     N          -0.211898           
         N20       1.0000    0.90630   0.64168   0.64269   Biso      1.000     N          -0.32474200000000003          
         Zn1       1.0000    0.50000   0.00000   0.25000   Biso      1.000     Zn          0.764573  
         Zn2       1.0000    0.50000   0.00000   0.75000   Biso      1.000     Zn          0.764573 