
##########################################################################
#               Crystallographic Information Format file
#               Produced by PyCifRW module
#
#  This is a CIF file.  CIF has been adopted by the International
#  Union of Crystallography as the standard for data archiving and
#  transmission.
#
#  For information on this file format, follow the CIF links at
#  http://www.iucr.org
##########################################################################

data_image0

_cell_length_a                          12.949
_cell_length_b                          13.869
_cell_length_c                          27.972
_cell_angle_alpha                       104.315
_cell_angle_beta                        98.301
_cell_angle_gamma                       94.349
_symmetry_space_group_name_H-M          'P 1'
_symmetry_int_tables_number             1
loop_
  _symmetry_equiv_pos_as_xyz
         'x, y, z' 
loop_
  _atom_site_label
  _atom_site_occupancy
  _atom_site_fract_x
  _atom_site_fract_y
  _atom_site_fract_z
  _atom_site_thermal_displace_type
  _atom_site_B_iso_or_equiv
  _atom_site_type_symbol
  _atom_site_charge
         C1        1.0000    0.33970   0.88010   0.34034   Biso      1.000     C          0.554069  
         C2        1.0000    0.86810   0.10080   0.97892   Biso      1.000     C          0.649044  
         C3        1.0000    0.80000   0.15970   0.95181   Biso      1.000     C          -0.019551           
         C4        1.0000    0.60030   0.17350   0.74178   Biso      1.000     C          -0.103627           
         C5        1.0000    0.26590   0.74210   0.62535   Biso      1.000     C          0.001029  
         C6        1.0000    0.43380   0.80020   0.68019   Biso      1.000     C          0.084663  
         C7        1.0000    0.51030   0.79910   0.72473   Biso      1.000     C          0.097605  
         C8        1.0000    0.09850   0.37390   0.76973   Biso      1.000     C          -0.142538           
         C9        1.0000    0.34930   0.36740   0.93637   Biso      1.000     C          0.611882  
         C10       1.0000    0.09920   0.17150   0.83285   Biso      1.000     C          -0.161224           
         C11       1.0000    0.35700   0.12340   0.51296   Biso      1.000     C          0.592479  
         C12       1.0000    0.46150   0.85270   0.64602   Biso      1.000     C          -0.144904           
         C13       1.0000    0.32410   0.21820   0.54276   Biso      1.000     C          -0.005235           
         C14       1.0000    0.49590   0.40360   0.74966   Biso      1.000     C          -0.098967           
         C15       1.0000    0.66740   0.78530   0.80269   Biso      1.000     C          -0.007269           
         C16       1.0000    0.33490   0.74420   0.66833   Biso      1.000     C          -0.156582           
         C17       1.0000    0.68610   0.28920   0.95526   Biso      1.000     C          -0.006648           
         C18       1.0000    0.14440   0.25330   0.81952   Biso      1.000     C          0.081441  
         C19       1.0000    0.06370   0.20150   0.72841   Biso      1.000     C          -0.135892           
         C20       1.0000    0.42900   0.89930   0.56471   Biso      1.000     C          0.610434  
         C21       1.0000    0.91950   0.93410   0.10850   Biso      1.000     C          0.546327  
         C22       1.0000    0.38420   0.80760   0.20715   Biso      1.000     C          -0.126927           
         C23       1.0000    0.97710   0.77550   0.31535   Biso      1.000     C          -0.093626           
         C24       1.0000    0.70390   0.20720   0.40814   Biso      1.000     C          -0.098334           
         C25       1.0000    0.78580   0.78360   0.08755   Biso      1.000     C          -0.105643           
         C26       1.0000    0.75020   0.73490   0.48144   Biso      1.000     C          -0.082573           
         C27       1.0000    0.73760   0.70230   0.10025   Biso      1.000     C          -0.015739           
         C28       1.0000    0.83940   0.31980   0.38589   Biso      1.000     C          0.547407  
         C29       1.0000    0.22770   0.87530   0.25851   Biso      1.000     C          -0.095702           
         C30       1.0000    0.63150   0.61330   0.32503   Biso      1.000     C          0.092501  
         C31       1.0000    0.97840   0.67800   0.31733   Biso      1.000     C          -0.01724  
         C32       1.0000    0.65130   0.50810   0.24461   Biso      1.000     C          -0.102008           
         C33       1.0000    0.77240   0.68490   0.14624   Biso      1.000     C          -0.147352           
         C34       1.0000    0.68650   0.54720   0.29572   Biso      1.000     C          -0.13311  
         C35       1.0000    0.52590   0.49630   0.16626   Biso      1.000     C          0.556308  
         C36       1.0000    0.21160   0.85510   0.20686   Biso      1.000     C          -0.132531           
         C37       1.0000    0.74570   0.60990   0.40480   Biso      1.000     C          -0.134485           
         C38       1.0000    0.25200   0.76810   0.02084   Biso      1.000     C          -0.088175           
         C39       1.0000    0.21590   0.35220   0.54414   Biso      1.000     C          -0.017052           
         C40       1.0000    0.58180   0.88020   0.75011   Biso      1.000     C          -0.145092           
         C41       1.0000    0.75620   0.77450   0.84055   Biso      1.000     C          0.560634  
         C42       1.0000    0.29610   0.79280   0.59186   Biso      1.000     C          -0.098334           
         C43       1.0000    0.21420   0.21640   0.91245   Biso      1.000     C          -0.105638           
         C44       1.0000    0.24980   0.26510   0.51856   Biso      1.000     C          -0.082572           
         C45       1.0000    0.26240   0.29770   0.89975   Biso      1.000     C          -0.015742           
         C46       1.0000    0.16060   0.68020   0.61411   Biso      1.000     C          0.547419  
         C47       1.0000    0.36850   0.38670   0.67497   Biso      1.000     C          0.0925    
         C48       1.0000    0.74800   0.23190   0.97916   Biso      1.000     C          -0.088174           
         C49       1.0000    0.02290   0.22450   0.68465   Biso      1.000     C          -0.093625           
         C50       1.0000    0.02160   0.32200   0.68267   Biso      1.000     C          -0.017237           
         C51       1.0000    0.22760   0.31510   0.85376   Biso      1.000     C          -0.147353           
         C52       1.0000    0.31350   0.45280   0.70428   Biso      1.000     C          -0.133112           
         C53       1.0000    0.47410   0.50370   0.83374   Biso      1.000     C          0.55631   
         C54       1.0000    0.78840   0.14490   0.79314   Biso      1.000     C          -0.132531           
         C55       1.0000    0.25430   0.39010   0.59520   Biso      1.000     C          -0.134488           
         C56       1.0000    0.08050   0.06590   0.89150   Biso      1.000     C          0.546328  
         C57       1.0000    0.77230   0.12470   0.74149   Biso      1.000     C          -0.095703           
         C58       1.0000    0.34870   0.49190   0.75539   Biso      1.000     C          -0.102005           
         C59       1.0000    0.61580   0.19240   0.79285   Biso      1.000     C          -0.126925           
         C60       1.0000    0.67710   0.27470   0.90354   Biso      1.000     C          -0.149378           
         C61       1.0000    0.36460   0.25900   0.59313   Biso      1.000     C          -0.146421           
         C62       1.0000    0.98260   0.34940   0.63524   Biso      1.000     C          0.566074  
         C63       1.0000    0.14260   0.40600   0.51765   Biso      1.000     C          0.640258  
         C64       1.0000    0.05910   0.39800   0.72631   Biso      1.000     C          -0.098104           
         C65       1.0000    0.39350   0.84810   0.60219   Biso      1.000     C          -0.016243           
         C66       1.0000    0.46250   0.36520   0.69826   Biso      1.000     C          -0.137141           
         C67       1.0000    0.71050   0.17920   0.81971   Biso      1.000     C          0.099234  
         C68       1.0000    0.78660   0.14230   0.90031   Biso      1.000     C          -0.136631           
         C69       1.0000    0.13330   0.15320   0.87862   Biso      1.000     C          -0.003811           
         C70       1.0000    0.32930   0.34490   0.62030   Biso      1.000     C          0.086338  
         C71       1.0000    0.62740   0.36580   0.98493   Biso      1.000     C          0.610885  
         C72       1.0000    0.59400   0.70390   0.77819   Biso      1.000     C          -0.101138           
         C73       1.0000    0.67880   0.13950   0.71577   Biso      1.000     C          0.006893  
         C74       1.0000    0.10220   0.27580   0.77172   Biso      1.000     C          0.092696  
         C75       1.0000    0.51730   0.70980   0.73944   Biso      1.000     C          -0.132013           
         C76       1.0000    0.43790   0.46400   0.77838   Biso      1.000     C          0.004199  
         C77       1.0000    0.65880   0.87370   0.78879   Biso      1.000     C          -0.085139           
         C78       1.0000    0.72560   0.19860   0.87557   Biso      1.000     C          0.089701  
         C79       1.0000    0.32290   0.72530   0.09646   Biso      1.000     C          -0.149377           
         C80       1.0000    0.63540   0.74100   0.40687   Biso      1.000     C          -0.146421           
         C81       1.0000    0.66030   0.11990   0.65966   Biso      1.000     C          0.55407   
         C82       1.0000    0.27440   0.80140   0.12443   Biso      1.000     C          0.0897    
         C83       1.0000    0.20000   0.84030   0.04819   Biso      1.000     C          -0.019549           
         C84       1.0000    0.21340   0.85770   0.09969   Biso      1.000     C          -0.136627           
         C85       1.0000    0.41820   0.11980   0.24989   Biso      1.000     C          -0.14515  
         C86       1.0000    0.28950   0.82080   0.18029   Biso      1.000     C          0.099234  
         C87       1.0000    0.85560   0.74670   0.18048   Biso      1.000     C          0.081439  
         C88       1.0000    0.39970   0.82650   0.25822   Biso      1.000     C          -0.103625           
         C89       1.0000    0.24380   0.22550   0.15945   Biso      1.000     C          0.559824  
         C90       1.0000    0.13190   0.89920   0.02108   Biso      1.000     C          0.649044  
         C91       1.0000    0.90080   0.82850   0.16715   Biso      1.000     C          -0.161225           
         C92       1.0000    0.90150   0.62610   0.23027   Biso      1.000     C          -0.142537           
         C93       1.0000    0.60650   0.15190   0.39781   Biso      1.000     C          -0.016247           
         C94       1.0000    0.73410   0.25790   0.37465   Biso      1.000     C          0.001033  
         C95       1.0000    0.01740   0.65060   0.36476   Biso      1.000     C          0.566077  
         C96       1.0000    0.56620   0.19980   0.31981   Biso      1.000     C          0.084662  
         C97       1.0000    0.48970   0.20090   0.27527   Biso      1.000     C          0.097592  
         C98       1.0000    0.66510   0.25580   0.33167   Biso      1.000     C          -0.156584           
         C99       1.0000    0.53750   0.63480   0.30174   Biso      1.000     C          -0.13714  
         C100      1.0000    0.85740   0.59400   0.48235   Biso      1.000     C          0.640256  
         C101      1.0000    0.86670   0.84680   0.12138   Biso      1.000     C          -0.003809           
         C102      1.0000    0.67070   0.65510   0.37970   Biso      1.000     C          0.086339  
         C103      1.0000    0.33260   0.21470   0.19731   Biso      1.000     C          -0.004359           
         C104      1.0000    0.34120   0.12630   0.21121   Biso      1.000     C          -0.086026           
         C105      1.0000    0.50410   0.59640   0.25034   Biso      1.000     C          -0.098967           
         C106      1.0000    0.56210   0.53600   0.22162   Biso      1.000     C          0.0042    
         C107      1.0000    0.31390   0.71080   0.04474   Biso      1.000     C          -0.006644           
         C108      1.0000    0.93630   0.79850   0.27159   Biso      1.000     C          -0.135889           
         C109      1.0000    0.67590   0.78180   0.45724   Biso      1.000     C          -0.005235           
         C110      1.0000    0.78410   0.64780   0.45586   Biso      1.000     C          -0.017051           
         C111      1.0000    0.48270   0.29020   0.26056   Biso      1.000     C          -0.132074           
         C112      1.0000    0.89780   0.72420   0.22828   Biso      1.000     C          0.092694  
         C113      1.0000    0.65070   0.63260   0.06363   Biso      1.000     C          0.611904  
         C114      1.0000    0.32120   0.86050   0.28423   Biso      1.000     C          0.006892  
         C115      1.0000    0.53850   0.14730   0.35398   Biso      1.000     C          -0.144902           
         C116      1.0000    0.64300   0.87660   0.48704   Biso      1.000     C          0.59248   
         C117      1.0000    0.40600   0.29610   0.22181   Biso      1.000     C          -0.102019           
         C118      1.0000    0.37260   0.63420   0.01507   Biso      1.000     C          0.610879  
         C119      1.0000    0.57100   0.10070   0.43529   Biso      1.000     C          0.610436  
         C120      1.0000    0.94090   0.60200   0.27369   Biso      1.000     C          -0.098103           
         Eu1       1.0000    0.61955   0.07470   0.55395   Biso      1.000     Eu          1.367459  
         Eu2       1.0000    0.46862   0.43586   0.06079   Biso      1.000     Eu          1.38952   
         Eu3       1.0000    0.01589   0.10482   0.08637   Biso      1.000     Eu          1.41285   
         Eu4       1.0000    0.53139   0.56414   0.93921   Biso      1.000     Eu          1.389533  
         Eu5       1.0000    0.02882   0.45434   0.41526   Biso      1.000     Eu          1.416193  
         Eu6       1.0000    0.97118   0.54566   0.58474   Biso      1.000     Eu          1.416164  
         Eu7       1.0000    0.98411   0.89518   0.91363   Biso      1.000     Eu          1.412858  
         Eu8       1.0000    0.38045   0.92530   0.44605   Biso      1.000     Eu          1.36746   
         H1        1.0000    0.41590   0.22860   0.60890   Biso      1.000     H          0.132252  
         H2        1.0000    0.31500   0.70750   0.68990   Biso      1.000     H          0.124212  
         H3        1.0000    0.56200   0.21450   0.81000   Biso      1.000     H          0.122441  
         H4        1.0000    0.06540   0.13470   0.72870   Biso      1.000     H          0.119481  
         H5        1.0000    0.44100   0.61230   0.23540   Biso      1.000     H          0.117802  
         H6        1.0000    0.22930   0.44690   0.61290   Biso      1.000     H          0.122611  
         H7        1.0000    0.99600   0.17300   0.65620   Biso      1.000     H          0.126498  
         H8        1.0000    0.57860   0.94030   0.74120   Biso      1.000     H          0.113987  
         H9        1.0000    0.85230   0.13520   0.81020   Biso      1.000     H          0.120305  
         H10       1.0000    0.05740   0.46480   0.72600   Biso      1.000     H          0.123888  
         H11       1.0000    0.50390   0.32450   0.67940   Biso      1.000     H          0.120625  
         H12       1.0000    0.47350   0.10880   0.34710   Biso      1.000     H          0.128695  
         H13       1.0000    0.25180   0.47150   0.68950   Biso      1.000     H          0.119596  
         H14       1.0000    0.81940   0.09180   0.88190   Biso      1.000     H          0.126225  
         H15       1.0000    0.26030   0.36920   0.84530   Biso      1.000     H          0.124415  
         H16       1.0000    0.63900   0.31570   0.88770   Biso      1.000     H          0.133341  
         H17       1.0000    0.59630   0.64450   0.78790   Biso      1.000     H          0.11519   
         H18       1.0000    0.75450   0.24200   0.01360   Biso      1.000     H          0.130847  
         H19       1.0000    0.22270   0.23750   0.48480   Biso      1.000     H          0.134234  
         H20       1.0000    0.46960   0.65370   0.72290   Biso      1.000     H          0.111948  
         H21       1.0000    0.23610   0.20450   0.94340   Biso      1.000     H          0.129759  
         H22       1.0000    0.95500   0.87160   0.18950   Biso      1.000     H          0.121673  
         H23       1.0000    0.70560   0.93000   0.80580   Biso      1.000     H          0.115898  
         H24       1.0000    0.46330   0.81640   0.27540   Biso      1.000     H          0.119577  
         H25       1.0000    0.87680   0.57490   0.20150   Biso      1.000     H          0.120173  
         H26       1.0000    0.25070   0.78960   0.56240   Biso      1.000     H          0.132943  
         H27       1.0000    0.31120   0.53740   0.77410   Biso      1.000     H          0.12067   
         H28       1.0000    0.29440   0.07000   0.19420   Biso      1.000     H          0.11587   
         H29       1.0000    0.55900   0.38770   0.76460   Biso      1.000     H          0.117802  
         H30       1.0000    0.04500   0.12840   0.81050   Biso      1.000     H          0.121672  
         H31       1.0000    0.94260   0.53520   0.27400   Biso      1.000     H          0.123891  
         H32       1.0000    0.77070   0.55310   0.38710   Biso      1.000     H          0.122609  
         H33       1.0000    0.14770   0.86480   0.18980   Biso      1.000     H          0.120304  
         H34       1.0000    0.49610   0.67550   0.32060   Biso      1.000     H          0.120627  
         H35       1.0000    0.93460   0.86530   0.27130   Biso      1.000     H          0.11948   
         H36       1.0000    0.12320   0.42510   0.79850   Biso      1.000     H          0.12017   
         H37       1.0000    0.74820   0.52850   0.31050   Biso      1.000     H          0.119596  
         H38       1.0000    0.42140   0.05970   0.25880   Biso      1.000     H          0.113988  
         H39       1.0000    0.73970   0.63080   0.15470   Biso      1.000     H          0.124417  
         H40       1.0000    0.17480   0.89910   0.27590   Biso      1.000     H          0.121336  
         H41       1.0000    0.18060   0.90820   0.11810   Biso      1.000     H          0.126224  
         H42       1.0000    0.68880   0.46260   0.22590   Biso      1.000     H          0.120673  
         H43       1.0000    0.68500   0.29250   0.31010   Biso      1.000     H          0.124217  
         H44       1.0000    0.58410   0.77140   0.39110   Biso      1.000     H          0.132251  
         H45       1.0000    0.36100   0.68430   0.11230   Biso      1.000     H          0.133342  
         H46       1.0000    0.43800   0.78550   0.19000   Biso      1.000     H          0.122443  
         H47       1.0000    0.53040   0.34630   0.27710   Biso      1.000     H          0.111949  
         H48       1.0000    0.00400   0.82700   0.34380   Biso      1.000     H          0.126497  
         H49       1.0000    0.74930   0.21040   0.43760   Biso      1.000     H          0.132951  
         H50       1.0000    0.24550   0.75800   0.98640   Biso      1.000     H          0.130849  
         H51       1.0000    0.76390   0.79550   0.05660   Biso      1.000     H          0.12976   
         H52       1.0000    0.53670   0.18360   0.72460   Biso      1.000     H          0.119577  
         H53       1.0000    0.40370   0.35550   0.21210   Biso      1.000     H          0.115162  
         H54       1.0000    0.52650   0.89120   0.65290   Biso      1.000     H          0.128695  
         H55       1.0000    0.77730   0.76250   0.51520   Biso      1.000     H          0.134232  
         H56       1.0000    0.82520   0.10090   0.72410   Biso      1.000     H          0.121337  
         O1        1.0000    0.51830   0.94930   0.57727   Biso      1.000     O          -0.528364           
         O2        1.0000    0.11370   0.86850   0.97435   Biso      1.000     O          -0.628209           
         O3        1.0000    0.11250   0.04811   0.93328   Biso      1.000     O          -0.530974           
         O4        1.0000    0.63110   0.11120   0.47552   Biso      1.000     O          -0.578978           
         O5        1.0000    0.23980   0.30600   0.14755   Biso      1.000     O          -0.450785           
         O6        1.0000    0.94610   0.28110   0.59664   Biso      1.000     O          -0.422484           
         O7        1.0000    0.62400   0.64881   0.02162   Biso      1.000     O          -0.583778           
         O8        1.0000    0.05390   0.71890   0.40336   Biso      1.000     O          -0.422494           
         O9        1.0000    0.88750   0.95189   0.06672   Biso      1.000     O          -0.530969           
         O10       1.0000    0.48170   0.05070   0.42273   Biso      1.000     O          -0.528363           
         O11       1.0000    0.09820   0.97367   0.04556   Biso      1.000     O          -0.612778           
         O12       1.0000    0.90180   0.02633   0.95444   Biso      1.000     O          -0.612781           
         O13       1.0000    0.37600   0.35119   0.97838   Biso      1.000     O          -0.583756           
         O14       1.0000    0.44380   0.09508   0.52767   Biso      1.000     O          -0.603466           
         O15       1.0000    0.40020   0.56478   0.03259   Biso      1.000     O          -0.594646           
         O16       1.0000    0.38960   0.43785   0.92175   Biso      1.000     O          -0.540186           
         O17       1.0000    0.12640   0.38060   0.47107   Biso      1.000     O          -0.618082           
         O18       1.0000    0.13970   0.62420   0.64167   Biso      1.000     O          -0.546866           
         O19       1.0000    0.86030   0.37580   0.35833   Biso      1.000     O          -0.54687  
         O20       1.0000    0.00920   0.55920   0.36359   Biso      1.000     O          -0.599303           
         O21       1.0000    0.99080   0.44080   0.63641   Biso      1.000     O          -0.599297           
         O22       1.0000    0.87360   0.61940   0.52893   Biso      1.000     O          -0.618076           
         O23       1.0000    0.60820   0.35300   0.02589   Biso      1.000     O          -0.516383           
         O24       1.0000    0.58630   0.15500   0.63870   Biso      1.000     O          -0.556965           
         O25       1.0000    0.72130   0.06980   0.63572   Biso      1.000     O          -0.522574           
         O26       1.0000    0.29740   0.07474   0.47415   Biso      1.000     O          -0.501658           
         O27       1.0000    0.43280   0.57320   0.85832   Biso      1.000     O          -0.525147           
         O28       1.0000    0.55620   0.90492   0.47233   Biso      1.000     O          -0.603468           
         O29       1.0000    0.59980   0.43522   0.96741   Biso      1.000     O          -0.594681           
         O30       1.0000    0.88630   0.13150   0.02565   Biso      1.000     O          -0.628207           
         O31       1.0000    0.61040   0.56215   0.07825   Biso      1.000     O          -0.540256           
         O32       1.0000    0.54710   0.46600   0.85487   Biso      1.000     O          -0.549772           
         O33       1.0000    0.56720   0.42680   0.14168   Biso      1.000     O          -0.525151           
         O34       1.0000    0.99490   0.98900   0.13915   Biso      1.000     O          -0.558411           
         O35       1.0000    0.89820   0.52370   0.45727   Biso      1.000     O          -0.623982           
         O36       1.0000    0.17420   0.14960   0.14169   Biso      1.000     O          -0.573632           
         O37       1.0000    0.45290   0.53400   0.14513   Biso      1.000     O          -0.549752           
         O38       1.0000    0.70260   0.92526   0.52585   Biso      1.000     O          -0.50166  
         O39       1.0000    0.36890   0.88880   0.52448   Biso      1.000     O          -0.578975           
         O40       1.0000    0.09493   0.68376   0.57653   Biso      1.000     O          -0.527425           
         O41       1.0000    0.10180   0.47630   0.54273   Biso      1.000     O          -0.623981           
         O42       1.0000    0.76020   0.69400   0.85245   Biso      1.000     O          -0.450714           
         O43       1.0000    0.27870   0.93020   0.36428   Biso      1.000     O          -0.522575           
         O44       1.0000    0.41370   0.84500   0.36130   Biso      1.000     O          -0.556969           
         O45       1.0000    0.82580   0.85040   0.85831   Biso      1.000     O          -0.573553           
         O46       1.0000    0.39180   0.64700   0.97411   Biso      1.000     O          -0.516371           
         O47       1.0000    0.00510   0.01100   0.86085   Biso      1.000     O          -0.558413           
         O48       1.0000    0.90507   0.31624   0.42347   Biso      1.000     O          -0.527427 