
##########################################################################
#               Crystallographic Information Format file
#               Produced by PyCifRW module
#
#  This is a CIF file.  CIF has been adopted by the International
#  Union of Crystallography as the standard for data archiving and
#  transmission.
#
#  For information on this file format, follow the CIF links at
#  http://www.iucr.org
##########################################################################

data_image0

_cell_length_a                          13.795
_cell_length_b                          12.83
_cell_length_c                          18.815
_cell_angle_alpha                       90
_cell_angle_beta                        89.959
_cell_angle_gamma                       90
_symmetry_space_group_name_H-M          'P 1'
_symmetry_int_tables_number             1
loop_
  _symmetry_equiv_pos_as_xyz
         'x, y, z' 
loop_
  _atom_site_label
  _atom_site_occupancy
  _atom_site_fract_x
  _atom_site_fract_y
  _atom_site_fract_z
  _atom_site_thermal_displace_type
  _atom_site_B_iso_or_equiv
  _atom_site_type_symbol
  _atom_site_charge
         Al1       1.0000    0.11050   0.04040   0.83450   Biso      1.000     Al          1.77098   
         Al2       1.0000    0.88280   0.77460   0.43850   Biso      1.000     Al          1.7737189999999998  
         Al3       1.0000    0.11050   0.95960   0.33450   Biso      1.000     Al          1.77098   
         Al4       1.0000    0.88280   0.22540   0.93850   Biso      1.000     Al          1.7737189999999998  
         Al5       1.0000    0.88950   0.04040   0.66550   Biso      1.000     Al          1.77098   
         Al6       1.0000    0.11720   0.22540   0.56150   Biso      1.000     Al          1.7737189999999998  
         Al7       1.0000    0.22670   0.90390   0.54950   Biso      1.000     Al          1.768166  
         Al8       1.0000    0.27330   0.40390   0.95050   Biso      1.000     Al          1.768166  
         Al9       1.0000    0.38280   0.72540   0.93850   Biso      1.000     Al          1.7737189999999998  
         Al10      1.0000    0.61050   0.54040   0.83450   Biso      1.000     Al          1.77098   
         Al11      1.0000    0.72670   0.59610   0.04950   Biso      1.000     Al          1.768166  
         Al12      1.0000    0.61720   0.27460   0.06150   Biso      1.000     Al          1.7737189999999998  
         Al13      1.0000    0.77330   0.09610   0.45050   Biso      1.000     Al          1.768166  
         Al14      1.0000    0.61050   0.45960   0.33450   Biso      1.000     Al          1.77098   
         Al15      1.0000    0.38280   0.27460   0.43850   Biso      1.000     Al          1.7737189999999998  
         Al16      1.0000    0.38950   0.54040   0.66550   Biso      1.000     Al          1.77098   
         Al17      1.0000    0.38950   0.45960   0.16550   Biso      1.000     Al          1.77098   
         Al18      1.0000    0.72670   0.40390   0.54950   Biso      1.000     Al          1.768166  
         Al19      1.0000    0.27330   0.59610   0.45050   Biso      1.000     Al          1.768166  
         Al20      1.0000    0.77330   0.90390   0.95050   Biso      1.000     Al          1.768166  
         Al21      1.0000    0.88950   0.95960   0.16550   Biso      1.000     Al          1.77098   
         Al22      1.0000    0.11720   0.77460   0.06150   Biso      1.000     Al          1.7737189999999998  
         Al23      1.0000    0.22670   0.09610   0.04950   Biso      1.000     Al          1.768166  
         Al24      1.0000    0.61720   0.72540   0.56150   Biso      1.000     Al          1.7737189999999998  
         O1        1.0000    0.81970   0.95260   0.86940   Biso      1.000     O          -0.8655299999999999           
         O2        1.0000    0.48760   0.50510   0.84180   Biso      1.000     O          -0.922393           
         O3        1.0000    0.68320   0.44620   0.87640   Biso      1.000     O          -0.8719629999999999           
         O4        1.0000    0.65340   0.33530   0.98220   Biso      1.000     O          -0.92548  
         O5        1.0000    0.14050   0.17600   0.00610   Biso      1.000     O          -0.920834           
         O6        1.0000    0.50530   0.76150   0.94220   Biso      1.000     O          -0.8687739999999999           
         O7        1.0000    0.31970   0.45260   0.86940   Biso      1.000     O          -0.8655299999999999           
         O8        1.0000    0.00530   0.26150   0.94220   Biso      1.000     O          -0.8687739999999999           
         O9        1.0000    0.15340   0.83530   0.98220   Biso      1.000     O          -0.92548  
         O10       1.0000    0.18320   0.94620   0.87640   Biso      1.000     O          -0.8719629999999999           
         O11       1.0000    0.26000   0.99090   0.99290   Biso      1.000     O          -0.906667           
         O12       1.0000    0.13000   0.16360   0.87330   Biso      1.000     O          -0.9105790000000001           
         O13       1.0000    0.98760   0.00510   0.84180   Biso      1.000     O          -0.922393           
         O14       1.0000    0.86230   0.14170   0.86650   Biso      1.000     O          -0.905645           
         O15       1.0000    0.16810   0.33220   0.92980   Biso      1.000     O          -0.858973           
         O16       1.0000    0.31630   0.83990   0.92420   Biso      1.000     O          -0.861432           
         O17       1.0000    0.85290   0.04100   0.75510   Biso      1.000     O          -0.8582780000000001           
         O18       1.0000    0.64050   0.67600   0.00610   Biso      1.000     O          -0.920834           
         O19       1.0000    0.36230   0.64170   0.86650   Biso      1.000     O          -0.905645           
         O20       1.0000    0.76000   0.50910   0.49290   Biso      1.000     O          -0.906667           
         O21       1.0000    0.35290   0.54100   0.75510   Biso      1.000     O          -0.8582780000000001           
         O22       1.0000    0.18370   0.33990   0.57580   Biso      1.000     O          -0.861432           
         O23       1.0000    0.64710   0.54100   0.74490   Biso      1.000     O          -0.8582780000000001           
         O24       1.0000    0.33190   0.83220   0.57020   Biso      1.000     O          -0.858973           
         O25       1.0000    0.63770   0.64170   0.63350   Biso      1.000     O          -0.905645           
         O26       1.0000    0.51240   0.50510   0.65820   Biso      1.000     O          -0.922393           
         O27       1.0000    0.31680   0.44620   0.62360   Biso      1.000     O          -0.8719629999999999           
         O28       1.0000    0.34660   0.33530   0.51780   Biso      1.000     O          -0.92548  
         O29       1.0000    0.49470   0.76150   0.55780   Biso      1.000     O          -0.8687739999999999           
         O30       1.0000    0.35950   0.67600   0.49390   Biso      1.000     O          -0.920834           
         O31       1.0000    0.68030   0.45260   0.63060   Biso      1.000     O          -0.8655290000000001           
         O32       1.0000    0.74000   0.99090   0.50710   Biso      1.000     O          -0.906667           
         O33       1.0000    0.66810   0.83220   0.92980   Biso      1.000     O          -0.858973           
         O34       1.0000    0.87000   0.16360   0.62670   Biso      1.000     O          -0.9105790000000001           
         O35       1.0000    0.14710   0.04100   0.74490   Biso      1.000     O          -0.8582780000000001           
         O36       1.0000    0.83190   0.33220   0.57020   Biso      1.000     O          -0.858973           
         O37       1.0000    0.13770   0.14170   0.63350   Biso      1.000     O          -0.905645           
         O38       1.0000    0.01240   0.00510   0.65820   Biso      1.000     O          -0.922393           
         O39       1.0000    0.81680   0.94620   0.62360   Biso      1.000     O          -0.8719629999999999           
         O40       1.0000    0.84660   0.83530   0.51780   Biso      1.000     O          -0.92548  
         O41       1.0000    0.99470   0.26150   0.55780   Biso      1.000     O          -0.8687739999999999           
         O42       1.0000    0.85950   0.17600   0.49390   Biso      1.000     O          -0.920834           
         O43       1.0000    0.18030   0.95260   0.63060   Biso      1.000     O          -0.8655299999999999           
         O44       1.0000    0.63000   0.66360   0.87330   Biso      1.000     O          -0.9105790000000001           
         O45       1.0000    0.81630   0.33990   0.92420   Biso      1.000     O          -0.861432           
         O46       1.0000    0.68370   0.83990   0.57580   Biso      1.000     O          -0.861432           
         O47       1.0000    0.76000   0.49090   0.99290   Biso      1.000     O          -0.906667           
         O48       1.0000    0.24000   0.49090   0.50710   Biso      1.000     O          -0.906666           
         O49       1.0000    0.24000   0.50910   0.00710   Biso      1.000     O          -0.906666           
         O50       1.0000    0.15340   0.16470   0.48220   Biso      1.000     O          -0.92548  
         O51       1.0000    0.00530   0.73850   0.44220   Biso      1.000     O          -0.8687739999999999           
         O52       1.0000    0.14050   0.82400   0.50610   Biso      1.000     O          -0.920834           
         O53       1.0000    0.81970   0.04740   0.36940   Biso      1.000     O          -0.8655299999999999           
         O54       1.0000    0.13770   0.85830   0.13350   Biso      1.000     O          -0.905645           
         O55       1.0000    0.83190   0.66780   0.07020   Biso      1.000     O          -0.858973           
         O56       1.0000    0.14710   0.95900   0.24490   Biso      1.000     O          -0.8582780000000001           
         O57       1.0000    0.37000   0.66360   0.62670   Biso      1.000     O          -0.9105790000000001           
         O58       1.0000    0.68370   0.16010   0.07580   Biso      1.000     O          -0.861432           
         O59       1.0000    0.87000   0.83640   0.12670   Biso      1.000     O          -0.9105790000000001           
         O60       1.0000    0.37000   0.33640   0.12670   Biso      1.000     O          -0.9105790000000001           
         O61       1.0000    0.18370   0.66010   0.07580   Biso      1.000     O          -0.861432           
         O62       1.0000    0.64710   0.45900   0.24490   Biso      1.000     O          -0.8582780000000001           
         O63       1.0000    0.33190   0.16780   0.07020   Biso      1.000     O          -0.858973           
         O64       1.0000    0.63770   0.35830   0.13350   Biso      1.000     O          -0.905645           
         O65       1.0000    0.51240   0.49490   0.15820   Biso      1.000     O          -0.922393           
         O66       1.0000    0.31680   0.55380   0.12360   Biso      1.000     O          -0.8719629999999999           
         O67       1.0000    0.34660   0.66470   0.01780   Biso      1.000     O          -0.92548  
         O68       1.0000    0.49470   0.23850   0.05780   Biso      1.000     O          -0.8687739999999999           
         O69       1.0000    0.35950   0.32400   0.99390   Biso      1.000     O          -0.920834           
         O70       1.0000    0.68030   0.54740   0.13060   Biso      1.000     O          -0.8655299999999999           
         O71       1.0000    0.18320   0.05380   0.37640   Biso      1.000     O          -0.8719629999999999           
         O72       1.0000    0.86230   0.85830   0.36650   Biso      1.000     O          -0.905645           
         O73       1.0000    0.98760   0.99490   0.34180   Biso      1.000     O          -0.922393           
         O74       1.0000    0.85290   0.95900   0.25510   Biso      1.000     O          -0.8582780000000001           
         O75       1.0000    0.63000   0.33640   0.37330   Biso      1.000     O          -0.91058  
         O76       1.0000    0.81630   0.66010   0.42420   Biso      1.000     O          -0.861432           
         O77       1.0000    0.35290   0.45900   0.25510   Biso      1.000     O          -0.8582780000000001           
         O78       1.0000    0.66810   0.16780   0.42980   Biso      1.000     O          -0.858973           
         O79       1.0000    0.36230   0.35830   0.36650   Biso      1.000     O          -0.905645           
         O80       1.0000    0.48760   0.49490   0.34180   Biso      1.000     O          -0.922393           
         O81       1.0000    0.68320   0.55380   0.37640   Biso      1.000     O          -0.8719629999999999           
         O82       1.0000    0.65340   0.66470   0.48220   Biso      1.000     O          -0.92548  
         O83       1.0000    0.50530   0.23850   0.44220   Biso      1.000     O          -0.8687739999999999           
         O84       1.0000    0.16810   0.66780   0.42980   Biso      1.000     O          -0.858973           
         O85       1.0000    0.64050   0.32400   0.50610   Biso      1.000     O          -0.920834           
         O86       1.0000    0.74000   0.00910   0.00710   Biso      1.000     O          -0.906667           
         O87       1.0000    0.18030   0.04740   0.13060   Biso      1.000     O          -0.8655299999999999           
         O88       1.0000    0.85950   0.82400   0.99390   Biso      1.000     O          -0.920834           
         O89       1.0000    0.99470   0.73850   0.05780   Biso      1.000     O          -0.8687739999999999           
         O90       1.0000    0.26000   0.00910   0.49290   Biso      1.000     O          -0.906666           
         O91       1.0000    0.84660   0.16470   0.01780   Biso      1.000     O          -0.92548  
         O92       1.0000    0.81680   0.05380   0.12360   Biso      1.000     O          -0.8719629999999999           
         O93       1.0000    0.01240   0.99490   0.15820   Biso      1.000     O          -0.922393           
         O94       1.0000    0.13000   0.83640   0.37330   Biso      1.000     O          -0.9105790000000001           
         O95       1.0000    0.31630   0.16010   0.42420   Biso      1.000     O          -0.861432           
         O96       1.0000    0.31970   0.54740   0.36940   Biso      1.000     O          -0.8655299999999999           
         P1        1.0000    0.27220   0.40370   0.55540   Biso      1.000     P          1.7922259999999999  
         P2        1.0000    0.11870   0.96430   0.16670   Biso      1.000     P          1.780413  
         P3        1.0000    0.88870   0.76760   0.06180   Biso      1.000     P          1.791046  
         P4        1.0000    0.38870   0.73240   0.56180   Biso      1.000     P          1.791046  
         P5        1.0000    0.61870   0.53570   0.66670   Biso      1.000     P          1.780413  
         P6        1.0000    0.22780   0.90370   0.94460   Biso      1.000     P          1.7922259999999999  
         P7        1.0000    0.38870   0.26760   0.06180   Biso      1.000     P          1.791046  
         P8        1.0000    0.11130   0.23240   0.93820   Biso      1.000     P          1.791046  
         P9        1.0000    0.88130   0.03570   0.83330   Biso      1.000     P          1.780413  
         P10       1.0000    0.38130   0.46430   0.33330   Biso      1.000     P          1.780413  
         P11       1.0000    0.61130   0.26760   0.43820   Biso      1.000     P          1.791045  
         P12       1.0000    0.72780   0.59630   0.44460   Biso      1.000     P          1.7922259999999999  
         P13       1.0000    0.72780   0.40370   0.94460   Biso      1.000     P          1.7922259999999999  
         P14       1.0000    0.61130   0.73240   0.93820   Biso      1.000     P          1.791045  
         P15       1.0000    0.38130   0.53570   0.83330   Biso      1.000     P          1.780413  
         P16       1.0000    0.88130   0.96430   0.33330   Biso      1.000     P          1.780413  
         P17       1.0000    0.11130   0.76760   0.43820   Biso      1.000     P          1.791046  
         P18       1.0000    0.22780   0.09630   0.44460   Biso      1.000     P          1.7922259999999999  
         P19       1.0000    0.77220   0.90370   0.55540   Biso      1.000     P          1.7922259999999999  
         P20       1.0000    0.88870   0.23240   0.56180   Biso      1.000     P          1.791046  
         P21       1.0000    0.11870   0.03570   0.66670   Biso      1.000     P          1.780413  
         P22       1.0000    0.61870   0.46430   0.16670   Biso      1.000     P          1.780413  
         P23       1.0000    0.27220   0.59630   0.05540   Biso      1.000     P          1.7922259999999999  
         P24       1.0000    0.77220   0.09630   0.05540   Biso      1.000     P          1.7922259999999999 