
##########################################################################
#               Crystallographic Information Format file
#               Produced by PyCifRW module
#
#  This is a CIF file.  CIF has been adopted by the International
#  Union of Crystallography as the standard for data archiving and
#  transmission.
#
#  For information on this file format, follow the CIF links at
#  http://www.iucr.org
##########################################################################

data_image0

_cell_length_a                          10.9413
_cell_length_b                          10.9413
_cell_length_c                          12.052
_cell_angle_alpha                       76.8932
_cell_angle_beta                        76.8932
_cell_angle_gamma                       86.9855
_symmetry_space_group_name_H-M          'P 1'
_symmetry_int_tables_number             1
loop_
  _symmetry_equiv_pos_as_xyz
         'x, y, z' 
loop_
  _atom_site_label
  _atom_site_occupancy
  _atom_site_fract_x
  _atom_site_fract_y
  _atom_site_fract_z
  _atom_site_thermal_displace_type
  _atom_site_B_iso_or_equiv
  _atom_site_type_symbol
  _atom_site_charge
         C1        1.0000    0.53992   0.32334   0.35050   Biso      1.000     C          -0.033385000000000005         
         C2        1.0000    0.29710   0.52812   0.18101   Biso      1.000     C          -0.016763           
         C3        1.0000    0.26855   0.53697   0.40033   Biso      1.000     C          0.000524  
         C4        1.0000    0.22199   0.76675   0.08570   Biso      1.000     C          -0.11645  
         C5        1.0000    0.31275   0.91627   0.20100   Biso      1.000     C          0.020214  
         C6        1.0000    0.37492   0.59092   0.64820   Biso      1.000     C          -0.038411           
         C7        1.0000    0.32334   0.53992   0.85050   Biso      1.000     C          -0.032001999999999996         
         C8        1.0000    0.52812   0.29710   0.68101   Biso      1.000     C          -0.009629           
         C9        1.0000    0.53697   0.26855   0.90033   Biso      1.000     C          0.0032159999999999997         
         C10       1.0000    0.76675   0.22199   0.58570   Biso      1.000     C          -0.112358           
         C11       1.0000    0.91627   0.31275   0.70100   Biso      1.000     C          0.027763  
         C12       1.0000    0.40908   0.62508   0.85180   Biso      1.000     C          -0.038398           
         C13       1.0000    0.46008   0.67666   0.64950   Biso      1.000     C          -0.031987           
         C14       1.0000    0.70290   0.47188   0.81899   Biso      1.000     C          -0.009629           
         C15       1.0000    0.73145   0.46303   0.59967   Biso      1.000     C          0.0032049999999999995         
         C16       1.0000    0.77801   0.23325   0.91430   Biso      1.000     C          -0.11235999999999999          
         C17       1.0000    0.68725   0.08373   0.79900   Biso      1.000     C          0.027762000000000002          
         C18       1.0000    0.23325   0.77801   0.41430   Biso      1.000     C          -0.11645  
         C19       1.0000    0.46303   0.73145   0.09967   Biso      1.000     C          0.000522  
         C20       1.0000    0.47188   0.70290   0.31899   Biso      1.000     C          -0.016776           
         C21       1.0000    0.67666   0.46008   0.14950   Biso      1.000     C          -0.033385000000000005         
         C22       1.0000    0.62508   0.40908   0.35180   Biso      1.000     C          -0.038993           
         C23       1.0000    0.08373   0.68725   0.29900   Biso      1.000     C          0.020198  
         C24       1.0000    0.59092   0.37492   0.14820   Biso      1.000     C          -0.038994           
         H1        1.0000    0.63480   0.42220   0.42290   Biso      1.000     H          0.143991  
         H2        1.0000    0.72200   0.50780   0.07970   Biso      1.000     H          0.148946  
         H3        1.0000    0.57780   0.36520   0.07710   Biso      1.000     H          0.143991  
         H4        1.0000    0.49220   0.27800   0.42030   Biso      1.000     H          0.148948  
         H5        1.0000    0.36520   0.57780   0.57710   Biso      1.000     H          0.143483  
         H6        1.0000    0.27800   0.49220   0.92030   Biso      1.000     H          0.149232  
         H7        1.0000    0.42220   0.63480   0.92290   Biso      1.000     H          0.143482  
         H8        1.0000    0.50780   0.72200   0.57970   Biso      1.000     H          0.149233  
         Mn1       1.0000    0.69282   0.76850   0.85761   Biso      1.000     Mn          1.027197  
         Mn2       1.0000    0.76850   0.69282   0.35761   Biso      1.000     Mn          1.0109299999999999  
         Mn3       1.0000    0.30718   0.23150   0.14239   Biso      1.000     Mn          1.0109629999999998  
         Mn4       1.0000    0.23150   0.30718   0.64239   Biso      1.000     Mn          1.027196  
         N1        1.0000    0.30441   0.52493   0.74827   Biso      1.000     N          0.365075  
         N2        1.0000    0.97612   0.68282   0.32390   Biso      1.000     N          -0.34731599999999996          
         N3        1.0000    0.52493   0.30441   0.24827   Biso      1.000     N          0.364483  
         N4        1.0000    0.29864   0.43768   0.14752   Biso      1.000     N          -0.390698           
         N5        1.0000    0.25640   0.45252   0.47896   Biso      1.000     N          -0.37800700000000004          
         N6        1.0000    0.18490   0.79950   0.00290   Biso      1.000     N          -0.332251           
         N7        1.0000    0.31718   0.02388   0.17610   Biso      1.000     N          -0.347319           
         N8        1.0000    0.56232   0.70136   0.35248   Biso      1.000     N          -0.39069499999999996          
         N9        1.0000    0.43768   0.29864   0.64752   Biso      1.000     N          -0.402923           
         N10       1.0000    0.79950   0.18490   0.50290   Biso      1.000     N          -0.34081999999999996          
         N11       1.0000    0.20050   0.81510   0.49710   Biso      1.000     N          -0.33225  
         N12       1.0000    0.02388   0.31718   0.67610   Biso      1.000     N          -0.361235           
         N13       1.0000    0.47507   0.69559   0.75173   Biso      1.000     N          0.365072  
         N14       1.0000    0.70136   0.56232   0.85248   Biso      1.000     N          -0.402923           
         N15       1.0000    0.74360   0.54748   0.52104   Biso      1.000     N          -0.384377           
         N16       1.0000    0.81510   0.20050   0.99710   Biso      1.000     N          -0.340825           
         N17       1.0000    0.68282   0.97612   0.82390   Biso      1.000     N          -0.361234           
         N18       1.0000    0.69559   0.47507   0.25173   Biso      1.000     N          0.36448200000000003           
         N19       1.0000    0.45252   0.25640   0.97896   Biso      1.000     N          -0.384378           
         N20       1.0000    0.54748   0.74360   0.02104   Biso      1.000     N          -0.378006           
         Nb1       1.0000    0.29494   0.70506   0.25000   Biso      1.000     Nb          0.832751  
         Nb2       1.0000    0.70506   0.29494   0.75000   Biso      1.000     Nb          0.7929109999999999  
         O1        1.0000    0.55247   0.78279   0.75174   Biso      1.000     O          -0.44079799999999997          
         O2        1.0000    0.21721   0.44753   0.74826   Biso      1.000     O          -0.44079799999999997          
         O3        1.0000    0.44753   0.21721   0.24826   Biso      1.000     O          -0.441475           
         O4        1.0000    0.78279   0.55247   0.25174   Biso      1.000     O          -0.44147 