
##########################################################################
#               Crystallographic Information Format file
#               Produced by PyCifRW module
#
#  This is a CIF file.  CIF has been adopted by the International
#  Union of Crystallography as the standard for data archiving and
#  transmission.
#
#  For information on this file format, follow the CIF links at
#  http://www.iucr.org
##########################################################################

data_image0

_cell_length_a                          9.745
_cell_length_b                          9.745
_cell_length_c                          10.7742
_cell_angle_alpha                       63.1125
_cell_angle_beta                        63.1125
_cell_angle_gamma                       89.9999
_symmetry_space_group_name_H-M          'P 1'
_symmetry_int_tables_number             1
loop_
  _symmetry_equiv_pos_as_xyz
         'x, y, z' 
loop_
  _atom_site_label
  _atom_site_occupancy
  _atom_site_fract_x
  _atom_site_fract_y
  _atom_site_fract_z
  _atom_site_thermal_displace_type
  _atom_site_B_iso_or_equiv
  _atom_site_type_symbol
  _atom_site_charge
         C1        1.0000    0.08470   0.48290   0.37200   Biso      1.000     C          0.054939  
         C2        1.0000    0.41530   0.35490   0.62800   Biso      1.000     C          0.054312  
         C3        1.0000    0.95670   0.01710   0.62800   Biso      1.000     C          -0.074645           
         C4        1.0000    0.35490   0.95670   0.62800   Biso      1.000     C          0.056670000000000005          
         C5        1.0000    0.85490   0.91530   0.62800   Biso      1.000     C          -0.074525           
         C6        1.0000    0.51710   0.45670   0.62800   Biso      1.000     C          0.053949000000000004          
         C7        1.0000    0.91530   0.51710   0.62800   Biso      1.000     C          0.056772  
         C8        1.0000    0.45670   0.85490   0.62800   Biso      1.000     C          0.056859  
         C9        1.0000    0.98290   0.58470   0.37200   Biso      1.000     C          0.051009  
         C10       1.0000    0.64510   0.04330   0.37200   Biso      1.000     C          0.054921000000000005          
         C11       1.0000    0.04330   0.98290   0.37200   Biso      1.000     C          0.036988  
         C12       1.0000    0.58470   0.64510   0.37200   Biso      1.000     C          0.052034000000000004          
         C13       1.0000    0.14510   0.08470   0.37200   Biso      1.000     C          0.037327  
         C14       1.0000    0.48290   0.54330   0.37200   Biso      1.000     C          0.051635  
         C15       1.0000    0.01710   0.41530   0.62800   Biso      1.000     C          0.056968  
         C16       1.0000    0.54330   0.14510   0.37200   Biso      1.000     C          0.050844  
         Cu1       1.0000    0.75000   0.75000   0.50000   Biso      1.000     Cu          0.65176   
         Cu2       1.0000    0.25000   0.25000   0.50000   Biso      1.000     Cu          0.651776  
         H1        1.0000    0.58360   0.26812   0.26105   Biso      1.000     H          0.077346  
         H2        1.0000    0.02916   0.34464   0.73895   Biso      1.000     H          0.079148  
         H3        1.0000    0.15536   0.47084   0.26105   Biso      1.000     H          0.079671  
         H4        1.0000    0.47084   0.58360   0.26105   Biso      1.000     H          0.08447400000000001           
         H5        1.0000    0.26812   0.15536   0.26105   Biso      1.000     H          0.067137  
         H6        1.0000    0.65536   0.76812   0.26105   Biso      1.000     H          0.08437599999999999           
         H7        1.0000    0.08360   0.97084   0.26105   Biso      1.000     H          0.067249  
         H8        1.0000    0.76812   0.08360   0.26105   Biso      1.000     H          0.07959   
         H9        1.0000    0.97084   0.65536   0.26105   Biso      1.000     H          0.077433  
         H10       1.0000    0.41640   0.73188   0.73895   Biso      1.000     H          0.079079  
         H11       1.0000    0.84464   0.52916   0.73895   Biso      1.000     H          0.083759  
         H12       1.0000    0.52916   0.41640   0.73895   Biso      1.000     H          0.08101699999999999           
         H13       1.0000    0.34464   0.23188   0.73895   Biso      1.000     H          0.080838  
         H14       1.0000    0.23188   0.91640   0.73895   Biso      1.000     H          0.083646  
         N1        1.0000    0.39960   0.10040   0.50000   Biso      1.000     N          -0.164326           
         N2        1.0000    0.10040   0.39960   0.50000   Biso      1.000     N          -0.16228800000000002          
         N3        1.0000    0.39960   0.39960   0.50000   Biso      1.000     N          -0.175742           
         N4        1.0000    0.10040   0.10040   0.50000   Biso      1.000     N          -0.159302           
         N5        1.0000    0.60040   0.89960   0.50000   Biso      1.000     N          -0.16203399999999998          
         N6        1.0000    0.60040   0.60040   0.50000   Biso      1.000     N          -0.175818           
         N7        1.0000    0.89960   0.89960   0.50000   Biso      1.000     N          -0.15923199999999998          
         N8        1.0000    0.89960   0.60040   0.50000   Biso      1.000     N          -0.16476300000000002          
         O1        1.0000    0.38570   0.38570   0.22860   Biso      1.000     O          -0.735744           
         O2        1.0000    0.61430   0.61430   0.77140   Biso      1.000     O          -0.729694           
         O3        1.0000    0.88570   0.88570   0.22860   Biso      1.000     O          -0.734971           
         O4        1.0000    0.11430   0.11430   0.77140   Biso      1.000     O          -0.728919           
         W1        1.0000    0.50000   0.50000   0.00000   Biso      1.000     W          0.635358  
         W2        1.0000    0.00000   0.00000   0.00000   Biso      1.000     W          0.633119 