
##########################################################################
#               Crystallographic Information Format file
#               Produced by PyCifRW module
#
#  This is a CIF file.  CIF has been adopted by the International
#  Union of Crystallography as the standard for data archiving and
#  transmission.
#
#  For information on this file format, follow the CIF links at
#  http://www.iucr.org
##########################################################################

data_image0

_cell_length_a                          6.1936
_cell_length_b                          24.9797
_cell_length_c                          25.3434
_cell_angle_alpha                       89.132
_cell_angle_beta                        82.9812
_cell_angle_gamma                       82.8785
_symmetry_space_group_name_H-M          'P 1'
_symmetry_int_tables_number             1
loop_
  _symmetry_equiv_pos_as_xyz
         'x, y, z' 
loop_
  _atom_site_label
  _atom_site_occupancy
  _atom_site_fract_x
  _atom_site_fract_y
  _atom_site_fract_z
  _atom_site_thermal_displace_type
  _atom_site_B_iso_or_equiv
  _atom_site_type_symbol
  _atom_site_charge
         Br1       1.0000    0.62958   0.22023   0.63915   Biso      1.000     Br          -0.50101  
         Br2       1.0000    0.61581   0.27834   0.79024   Biso      1.000     Br          -0.497    
         Br3       1.0000    0.47554   0.58351   0.51503   Biso      1.000     Br          -0.456441           
         Br4       1.0000    0.48896   0.77977   0.36085   Biso      1.000     Br          -0.501292           
         Br5       1.0000    0.57408   0.41649   0.48497   Biso      1.000     Br          -0.456059           
         Br6       1.0000    0.01873   0.72023   0.86085   Biso      1.000     Br          -0.501481           
         Br7       1.0000    0.68439   0.72166   0.20976   Biso      1.000     Br          -0.49726  
         Br8       1.0000    0.74057   0.08351   0.98497   Biso      1.000     Br          -0.45666  
         Br9       1.0000    0.59981   0.27977   0.13915   Biso      1.000     Br          -0.50129  
         Br10      1.0000    0.64415   0.22166   0.29024   Biso      1.000     Br          -0.497243           
         Br11      1.0000    0.80905   0.91649   0.01503   Biso      1.000     Br          -0.456398           
         Br12      1.0000    0.15605   0.77834   0.70976   Biso      1.000     Br          -0.497138           
         C1        1.0000    0.66011   0.85222   0.75936   Biso      1.000     C          0.094658  
         C2        1.0000    0.98305   0.41746   0.28264   Biso      1.000     C          0.054396  
         C3        1.0000    0.19326   0.41710   0.25658   Biso      1.000     C          -0.148012           
         C4        1.0000    0.31095   0.36860   0.23990   Biso      1.000     C          0.091068  
         C5        1.0000    0.49859   0.89554   0.76528   Biso      1.000     C          -0.148857           
         C6        1.0000    0.02766   0.55792   0.43316   Biso      1.000     C          0.091348  
         C7        1.0000    0.29038   0.84416   0.82828   Biso      1.000     C          -0.1482   
         C8        1.0000    0.46018   0.80236   0.82028   Biso      1.000     C          0.107799  
         C9        1.0000    0.14788   0.94052   0.81012   Biso      1.000     C          0.378372  
         C10       1.0000    0.07411   0.03062   0.80116   Biso      1.000     C          0.372475  
         C11       1.0000    0.89805   0.36878   0.29192   Biso      1.000     C          -0.148103           
         C12       1.0000    0.31204   0.89204   0.80068   Biso      1.000     C          0.04902   
         C13       1.0000    0.02813   0.32180   0.27434   Biso      1.000     C          0.110509  
         C14       1.0000    0.85473   0.46938   0.30116   Biso      1.000     C          0.371002  
         C15       1.0000    0.25089   0.46764   0.38458   Biso      1.000     C          -0.14251  
         C16       1.0000    0.33914   0.51620   0.37732   Biso      1.000     C          0.044419  
         C17       1.0000    0.22363   0.56226   0.40168   Biso      1.000     C          -0.140617           
         C18       1.0000    0.55621   0.51638   0.34560   Biso      1.000     C          0.381888  
         C19       1.0000    0.82259   0.98362   0.84560   Biso      1.000     C          0.381634  
         C20       1.0000    0.83840   0.55948   0.31012   Biso      1.000     C          0.379138  
         C21       1.0000    0.01254   0.69764   0.32028   Biso      1.000     C          0.105904  
         C22       1.0000    0.88454   0.65584   0.32828   Biso      1.000     C          -0.14781  
         C23       1.0000    0.95408   0.60796   0.30068   Biso      1.000     C          0.04988   
         C24       1.0000    0.14413   0.60446   0.26528   Biso      1.000     C          -0.148821           
         C25       1.0000    0.91945   0.63140   0.76010   Biso      1.000     C          0.090483  
         C26       1.0000    0.05386   0.46666   0.41602   Biso      1.000     C          0.073204  
         C27       1.0000    0.33558   0.94208   0.93316   Biso      1.000     C          0.090912  
         C28       1.0000    0.15051   0.08254   0.78264   Biso      1.000     C          0.052435  
         C29       1.0000    0.60534   0.98380   0.87732   Biso      1.000     C          0.044969  
         C30       1.0000    0.30085   0.86860   0.26010   Biso      1.000     C          0.093658  
         C31       1.0000    0.19984   0.91710   0.24342   Biso      1.000     C          -0.147682           
         C32       1.0000    0.01569   0.91746   0.21736   Biso      1.000     C          0.054866  
         C33       1.0000    0.93997   0.86878   0.20808   Biso      1.000     C          -0.148724           
         C34       1.0000    0.05247   0.82180   0.22566   Biso      1.000     C          0.113802  
         C35       1.0000    0.21988   0.96666   0.08398   Biso      1.000     C          0.075901  
         C36       1.0000    0.38547   0.96764   0.11542   Biso      1.000     C          -0.144135           
         C37       1.0000    0.46646   0.01620   0.12268   Biso      1.000     C          0.046555  
         C38       1.0000    0.37531   0.06226   0.09832   Biso      1.000     C          -0.144318           
         C39       1.0000    0.21082   0.05792   0.06684   Biso      1.000     C          0.094348  
         C40       1.0000    0.65181   0.01638   0.15440   Biso      1.000     C          0.381944  
         C41       1.0000    0.90589   0.96938   0.19884   Biso      1.000     C          0.369863  
         C42       1.0000    0.89852   0.05948   0.18988   Biso      1.000     C          0.380504  
         C43       1.0000    0.08282   0.19764   0.17972   Biso      1.000     C          0.106561  
         C44       1.0000    0.96282   0.15584   0.17172   Biso      1.000     C          -0.147099           
         C45       1.0000    0.00476   0.10796   0.19932   Biso      1.000     C          0.04836   
         C46       1.0000    0.15941   0.10446   0.23472   Biso      1.000     C          -0.148369           
         C47       1.0000    0.27169   0.14778   0.24064   Biso      1.000     C          0.092291  
         C48       1.0000    0.42955   0.13140   0.73990   Biso      1.000     C          0.091222  
         C49       1.0000    0.36036   0.08290   0.75658   Biso      1.000     C          -0.147477           
         C50       1.0000    0.86694   0.58290   0.74342   Biso      1.000     C          -0.147103           
         C51       1.0000    0.01683   0.13122   0.79192   Biso      1.000     C          -0.146733           
         C52       1.0000    0.09993   0.17820   0.77434   Biso      1.000     C          0.109526  
         C53       1.0000    0.27052   0.03334   0.91602   Biso      1.000     C          0.074851  
         C54       1.0000    0.46853   0.03236   0.88458   Biso      1.000     C          -0.141434           
         C55       1.0000    0.53589   0.93774   0.90168   Biso      1.000     C          -0.141451           
         C56       1.0000    0.68315   0.58254   0.71736   Biso      1.000     C          0.051896  
         C57       1.0000    0.26233   0.64778   0.25936   Biso      1.000     C          0.09458   
         C58       1.0000    0.62427   0.67820   0.72566   Biso      1.000     C          0.109416  
         C59       1.0000    0.16947   0.35222   0.74064   Biso      1.000     C          0.094202  
         C60       1.0000    0.01387   0.39554   0.73472   Biso      1.000     C          -0.149981           
         C61       1.0000    0.86272   0.39204   0.69932   Biso      1.000     C          0.049718  
         C62       1.0000    0.86866   0.34416   0.67172   Biso      1.000     C          -0.145173           
         C63       1.0000    0.03046   0.30236   0.67972   Biso      1.000     C          0.105588  
         C64       1.0000    0.70800   0.44052   0.68988   Biso      1.000     C          0.377812  
         C65       1.0000    0.62527   0.53062   0.69884   Biso      1.000     C          0.372686  
         C66       1.0000    0.55875   0.63122   0.70808   Biso      1.000     C          -0.145387           
         C67       1.0000    0.01874   0.44208   0.56684   Biso      1.000     C          0.093102  
         C68       1.0000    0.18757   0.43774   0.59832   Biso      1.000     C          -0.143175           
         C69       1.0000    0.41819   0.48362   0.65440   Biso      1.000     C          0.380834  
         C70       1.0000    0.23266   0.48380   0.62268   Biso      1.000     C          0.045273  
         C71       1.0000    0.10311   0.53236   0.61542   Biso      1.000     C          -0.14254  
         C72       1.0000    0.93654   0.53334   0.58398   Biso      1.000     C          0.074451  
         H1        1.0000    0.75260   0.65980   0.35200   Biso      1.000     H          0.132301  
         H2        1.0000    0.96580   0.73040   0.33920   Biso      1.000     H          0.105357  
         H3        1.0000    0.94950   0.58940   0.45020   Biso      1.000     H          0.10426   
         H4        1.0000    0.27800   0.59620   0.39680   Biso      1.000     H          0.134554  
         H5        1.0000    0.99350   0.43340   0.42060   Biso      1.000     H          0.098524  
         H6        1.0000    0.19250   0.57240   0.24520   Biso      1.000     H          0.131395  
         H7        1.0000    0.97150   0.28840   0.28100   Biso      1.000     H          0.096409  
         H8        1.0000    0.75460   0.36780   0.30980   Biso      1.000     H          0.131001  
         H9        1.0000    0.25550   0.44980   0.25020   Biso      1.000     H          0.1326    
         H10       1.0000    0.32570   0.43560   0.36800   Biso      1.000     H          0.127311  
         H11       1.0000    0.39270   0.64500   0.23500   Biso      1.000     H          0.095041  
         H12       1.0000    0.43220   0.63220   0.69020   Biso      1.000     H          0.129592  
         H13       1.0000    0.95550   0.55020   0.74980   Biso      1.000     H          0.132073  
         H14       1.0000    0.54090   0.71160   0.71900   Biso      1.000     H          0.097208  
         H15       1.0000    0.84750   0.56660   0.57940   Biso      1.000     H          0.098455  
         H16       1.0000    0.12930   0.56440   0.63200   Biso      1.000     H          0.127437  
         H17       1.0000    0.45450   0.36860   0.22180   Biso      1.000     H          0.09218   
         H18       1.0000    0.98910   0.41060   0.54980   Biso      1.000     H          0.103759  
         H19       1.0000    0.03540   0.26960   0.66080   Biso      1.000     H          0.104604  
         H20       1.0000    0.76440   0.34020   0.64800   Biso      1.000     H          0.131243  
         H21       1.0000    0.27270   0.35500   0.76500   Biso      1.000     H          0.095126  
         H22       1.0000    0.01010   0.42760   0.75480   Biso      1.000     H          0.132382  
         H23       1.0000    0.04490   0.63140   0.77820   Biso      1.000     H          0.092874  
         H24       1.0000    0.27100   0.40380   0.60320   Biso      1.000     H          0.136066  
         H25       1.0000    0.51490   0.92760   0.74520   Biso      1.000     H          0.132007  
         H26       1.0000    0.16240   0.84020   0.85200   Biso      1.000     H          0.132665  
         H27       1.0000    0.42630   0.86860   0.27820   Biso      1.000     H          0.090781  
         H28       1.0000    0.25570   0.94980   0.24980   Biso      1.000     H          0.131696  
         H29       1.0000    0.81440   0.86780   0.19020   Biso      1.000     H          0.130392  
         H30       1.0000    0.78770   0.85500   0.73500   Biso      1.000     H          0.095051  
         H31       1.0000    0.16410   0.93340   0.07940   Biso      1.000     H          0.097624  
         H32       1.0000    0.44370   0.93560   0.13200   Biso      1.000     H          0.127953  
         H33       1.0000    0.42480   0.09620   0.10320   Biso      1.000     H          0.136351  
         H34       1.0000    0.14970   0.08940   0.04980   Biso      1.000     H          0.10389   
         H35       1.0000    0.05500   0.23040   0.16080   Biso      1.000     H          0.104028  
         H36       1.0000    0.85460   0.15980   0.14800   Biso      1.000     H          0.132414  
         H37       1.0000    0.00250   0.78840   0.21900   Biso      1.000     H          0.095244  
         H38       1.0000    0.37770   0.14500   0.26500   Biso      1.000     H          0.096118  
         H39       1.0000    0.18770   0.07240   0.25480   Biso      1.000     H          0.132944  
         H40       1.0000    0.44620   0.76960   0.83920   Biso      1.000     H          0.104827  
         H41       1.0000    0.62420   0.90380   0.89680   Biso      1.000     H          0.135504  
         H42       1.0000    0.51130   0.06440   0.86800   Biso      1.000     H          0.126039  
         H43       1.0000    0.28890   0.91060   0.95020   Biso      1.000     H          0.104553  
         H44       1.0000    0.00990   0.21160   0.78100   Biso      1.000     H          0.096874  
         H45       1.0000    0.87240   0.13220   0.80980   Biso      1.000     H          0.130388  
         H46       1.0000    0.45530   0.05020   0.75020   Biso      1.000     H          0.132638  
         H47       1.0000    0.57310   0.13140   0.72180   Biso      1.000     H          0.092087  
         H48       1.0000    0.17690   0.06660   0.92060   Biso      1.000     H          0.097882  
         N1        1.0000    0.87480   0.03158   0.82802   Biso      1.000     N          -0.388167           
         N2        1.0000    0.94345   0.51100   0.44070   Biso      1.000     N          -0.186705           
         N3        1.0000    0.22985   0.32130   0.24840   Biso      1.000     N          -0.168563           
         N4        1.0000    0.64381   0.80594   0.78684   Biso      1.000     N          -0.177243           
         N5        1.0000    0.95305   0.93658   0.83832   Biso      1.000     N          -0.378132           
         N6        1.0000    0.21551   0.98646   0.79052   Biso      1.000     N          -0.397196           
         N7        1.0000    0.30115   0.17870   0.74840   Biso      1.000     N          -0.167565           
         N8        1.0000    0.73440   0.96842   0.17198   Biso      1.000     N          -0.387385           
         N9        1.0000    0.72795   0.06342   0.16168   Biso      1.000     N          -0.379315           
         N10       1.0000    0.23659   0.19406   0.21316   Biso      1.000     N          -0.175476           
         N11       1.0000    0.95197   0.51354   0.29052   Biso      1.000     N          -0.396675           
         N12       1.0000    0.20445   0.98900   0.94070   Biso      1.000     N          -0.187318           
         N13       1.0000    0.99249   0.01354   0.20948   Biso      1.000     N          -0.397341           
         N14       1.0000    0.65638   0.46842   0.32802   Biso      1.000     N          -0.387475           
         N15       1.0000    0.22825   0.82130   0.25160   Biso      1.000     N          -0.170476           
         N16       1.0000    0.19975   0.69406   0.28684   Biso      1.000     N          -0.176727           
         N17       1.0000    0.79955   0.67870   0.75160   Biso      1.000     N          -0.167961           
         N18       1.0000    0.89515   0.48900   0.55930   Biso      1.000     N          -0.188312           
         N19       1.0000    0.75603   0.48646   0.70948   Biso      1.000     N          -0.396785           
         N20       1.0000    0.45282   0.53158   0.67198   Biso      1.000     N          -0.388198           
         N21       1.0000    0.54137   0.43658   0.66168   Biso      1.000     N          -0.37798  
         N22       1.0000    0.18065   0.30594   0.71316   Biso      1.000     N          -0.1752   
         N23       1.0000    0.13415   0.01100   0.05930   Biso      1.000     N          -0.189795           
         N24       1.0000    0.63963   0.56342   0.33832   Biso      1.000     N          -0.378698           
         Zn1       1.0000    0.94072   0.00000   0.00000   Biso      1.000     Zn          0.520234  
         Zn2       1.0000    0.69072   0.50000   0.50000   Biso      1.000     Zn          0.519594  
         Zn3       1.0000    0.42982   0.25306   0.22269   Biso      1.000     Zn          0.536727  
         Zn4       1.0000    0.90557   0.74694   0.77731   Biso      1.000     Zn          0.536809  
         Zn5       1.0000    0.40251   0.75306   0.27731   Biso      1.000     Zn          0.537583  
         Zn6       1.0000    0.43288   0.24694   0.72269   Biso      1.000     Zn          0.5357 