
##########################################################################
#               Crystallographic Information Format file
#               Produced by PyCifRW module
#
#  This is a CIF file.  CIF has been adopted by the International
#  Union of Crystallography as the standard for data archiving and
#  transmission.
#
#  For information on this file format, follow the CIF links at
#  http://www.iucr.org
##########################################################################

data_image0

_cell_length_a                          9.716
_cell_length_b                          12.193
_cell_length_c                          12.4423
_cell_angle_alpha                       103.863
_cell_angle_beta                        112.124
_cell_angle_gamma                       107.28
_symmetry_space_group_name_H-M          'P 1'
_symmetry_int_tables_number             1
loop_
  _symmetry_equiv_pos_as_xyz
         'x, y, z' 
loop_
  _atom_site_label
  _atom_site_occupancy
  _atom_site_fract_x
  _atom_site_fract_y
  _atom_site_fract_z
  _atom_site_thermal_displace_type
  _atom_site_B_iso_or_equiv
  _atom_site_type_symbol
  _atom_site_charge
         C1        1.0000    0.60300   0.21620   0.00820   Biso      1.000     C          -0.12321700000000001          
         C2        1.0000    0.29400   0.05570   0.42420   Biso      1.000     C          -0.09828300000000001          
         C3        1.0000    0.87610   0.24100   0.02590   Biso      1.000     C          0.621423  
         C4        1.0000    0.69450   0.16650   0.96760   Biso      1.000     C          -0.034741           
         C5        1.0000    0.61740   0.04660   0.87390   Biso      1.000     C          -0.092662           
         C6        1.0000    0.44960   0.97690   0.82010   Biso      1.000     C          -0.078598           
         C7        1.0000    0.35900   0.02390   0.86280   Biso      1.000     C          -0.088534           
         C8        1.0000    0.43510   0.14350   0.95790   Biso      1.000     C          -0.024991           
         C9        1.0000    0.56490   0.85650   0.04210   Biso      1.000     C          -0.024991           
         C10       1.0000    0.67350   0.38690   0.74650   Biso      1.000     C          0.63025   
         C11       1.0000    0.37680   0.04890   0.53840   Biso      1.000     C          -0.08668  
         C12       1.0000    0.33830   0.19070   0.00950   Biso      1.000     C          0.602774  
         C13       1.0000    0.66860   0.83060   0.58740   Biso      1.000     C          -0.033128           
         C14       1.0000    0.54710   0.72220   0.48190   Biso      1.000     C          -0.12166600000000001          
         C15       1.0000    0.46010   0.72890   0.36800   Biso      1.000     C          -0.029711           
         C16       1.0000    0.49800   0.84370   0.35860   Biso      1.000     C          -0.10308699999999998          
         C17       1.0000    0.62320   0.95110   0.46160   Biso      1.000     C          -0.086681           
         C18       1.0000    0.70600   0.94430   0.57580   Biso      1.000     C          -0.098272           
         C19       1.0000    0.12390   0.75900   0.97410   Biso      1.000     C          0.621428  
         C20       1.0000    0.30550   0.83350   0.03240   Biso      1.000     C          -0.034746           
         C21       1.0000    0.38260   0.95340   0.12610   Biso      1.000     C          -0.092664           
         C22       1.0000    0.75690   0.82720   0.71400   Biso      1.000     C          0.6060840000000001  
         C23       1.0000    0.50200   0.15630   0.64140   Biso      1.000     C          -0.10308800000000001          
         C24       1.0000    0.53990   0.27110   0.63200   Biso      1.000     C          -0.029715           
         C25       1.0000    0.45290   0.27780   0.51810   Biso      1.000     C          -0.12166600000000001          
         C26       1.0000    0.66170   0.80930   0.99050   Biso      1.000     C          0.602762  
         C27       1.0000    0.32650   0.61310   0.25350   Biso      1.000     C          0.630259  
         C28       1.0000    0.39700   0.78380   0.99180   Biso      1.000     C          -0.123215           
         C29       1.0000    0.55040   0.02310   0.17990   Biso      1.000     C          -0.078597           
         C30       1.0000    0.64100   0.97610   0.13720   Biso      1.000     C          -0.088535           
         C31       1.0000    0.33140   0.16940   0.41260   Biso      1.000     C          -0.033125           
         C32       1.0000    0.24310   0.17280   0.28600   Biso      1.000     C          0.6060800000000001  
         H1        1.0000    0.32100   0.98690   0.15280   Biso      1.000     H          0.11074   
         H2        1.0000    0.34680   0.70240   0.93150   Biso      1.000     H          0.13058599999999998           
         H3        1.0000    0.47570   0.35510   0.51210   Biso      1.000     H          0.133193  
         H4        1.0000    0.56080   0.15130   0.71730   Biso      1.000     H          0.10030700000000001           
         H5        1.0000    0.34860   0.97230   0.54600   Biso      1.000     H          0.10809   
         H6        1.0000    0.21220   0.98290   0.35440   Biso      1.000     H          0.119993  
         H7        1.0000    0.67900   0.01310   0.84720   Biso      1.000     H          0.11074   
         H8        1.0000    0.39800   0.89810   0.75510   Biso      1.000     H          0.116604  
         H9        1.0000    0.24670   0.97590   0.82820   Biso      1.000     H          0.12388199999999999           
         H10       1.0000    0.75330   0.02410   0.17180   Biso      1.000     H          0.12388199999999999           
         H11       1.0000    0.52430   0.64490   0.48790   Biso      1.000     H          0.133195  
         H12       1.0000    0.43920   0.84870   0.28270   Biso      1.000     H          0.10030800000000001           
         H13       1.0000    0.65140   0.02770   0.45400   Biso      1.000     H          0.108089  
         H14       1.0000    0.78780   0.01710   0.64560   Biso      1.000     H          0.11999000000000001           
         H15       1.0000    0.60200   0.10190   0.24490   Biso      1.000     H          0.116604  
         H16       1.0000    0.65320   0.29760   0.06850   Biso      1.000     H          0.130591  
         Mn1       1.0000    0.21525   0.32873   0.12322   Biso      1.000     Mn          0.9528530000000001  
         Mn2       1.0000    0.00000   0.50000   0.00000   Biso      1.000     Mn          1.066453  
         Mn3       1.0000    0.00000   0.00000   0.00000   Biso      1.000     Mn          1.113013  
         Mn4       1.0000    0.78475   0.67127   0.87678   Biso      1.000     Mn          0.9528549999999999  
         O1        1.0000    0.33895   0.51262   0.24835   Biso      1.000     O          -0.531462           
         O2        1.0000    0.21349   0.62503   0.17289   Biso      1.000     O          -0.5842149999999999           
         O3        1.0000    0.06009   0.64139   0.91999   Biso      1.000     O          -0.593115           
         O4        1.0000    0.03613   0.81650   0.97973   Biso      1.000     O          -0.562872           
         O5        1.0000    0.86307   0.93035   0.80337   Biso      1.000     O          -0.58455  
         O6        1.0000    0.71770   0.72325   0.72190   Biso      1.000     O          -0.534702           
         O7        1.0000    0.20120   0.11390   0.98450   Biso      1.000     O          -0.595174           
         O8        1.0000    0.39670   0.30530   0.07540   Biso      1.000     O          -0.545151           
         O9        1.0000    0.66105   0.48738   0.75165   Biso      1.000     O          -0.531454           
         O10       1.0000    0.78651   0.37497   0.82711   Biso      1.000     O          -0.584213           
         O11       1.0000    0.93991   0.35861   0.08001   Biso      1.000     O          -0.593117           
         O12       1.0000    0.96387   0.18350   0.02027   Biso      1.000     O          -0.562855           
         O13       1.0000    0.13693   0.06965   0.19663   Biso      1.000     O          -0.584547           
         O14       1.0000    0.28230   0.27675   0.27810   Biso      1.000     O          -0.5346920000000001           
         O15       1.0000    0.60330   0.69470   0.92460   Biso      1.000     O          -0.545147           
         O16       1.0000    0.79880   0.88610   0.01550   Biso      1.000     O          -0.595169 