
##########################################################################
#               Crystallographic Information Format file
#               Produced by PyCifRW module
#
#  This is a CIF file.  CIF has been adopted by the International
#  Union of Crystallography as the standard for data archiving and
#  transmission.
#
#  For information on this file format, follow the CIF links at
#  http://www.iucr.org
##########################################################################

data_image0

_cell_length_a                          7.4407
_cell_length_b                          9.766
_cell_length_c                          9.85
_cell_angle_alpha                       118.297
_cell_angle_beta                        102.247
_cell_angle_gamma                       91.434
_symmetry_space_group_name_H-M          'P 1'
_symmetry_int_tables_number             1
loop_
  _symmetry_equiv_pos_as_xyz
         'x, y, z' 
loop_
  _atom_site_label
  _atom_site_occupancy
  _atom_site_fract_x
  _atom_site_fract_y
  _atom_site_fract_z
  _atom_site_thermal_displace_type
  _atom_site_B_iso_or_equiv
  _atom_site_type_symbol
  _atom_site_charge
         C1        1.0000    0.60330   0.88100   0.92850   Biso      1.000     C          -0.088867           
         C2        1.0000    0.53970   0.89530   0.05650   Biso      1.000     C          -0.110348           
         C3        1.0000    0.81270   0.50850   0.99270   Biso      1.000     C          -0.096769           
         C4        1.0000    0.18730   0.49150   0.00730   Biso      1.000     C          -0.096769           
         C5        1.0000    0.86530   0.38290   0.87200   Biso      1.000     C          -0.102654           
         C6        1.0000    0.05430   0.37400   0.87820   Biso      1.000     C          -0.013885           
         C7        1.0000    0.11500   0.24260   0.74630   Biso      1.000     C          0.577464  
         C8        1.0000    0.43690   0.01540   0.12980   Biso      1.000     C          -0.017518           
         C9        1.0000    0.39670   0.11900   0.07150   Biso      1.000     C          -0.088868           
         C10       1.0000    0.37260   0.03250   0.27080   Biso      1.000     C          0.562923  
         C11       1.0000    0.46030   0.10470   0.94350   Biso      1.000     C          -0.110348           
         C12       1.0000    0.56310   0.98460   0.87020   Biso      1.000     C          -0.017519           
         C13       1.0000    0.62740   0.96750   0.72920   Biso      1.000     C          0.562923  
         C14       1.0000    0.88500   0.75740   0.25370   Biso      1.000     C          0.577464  
         C15       1.0000    0.94570   0.62600   0.12180   Biso      1.000     C          -0.013884           
         C16       1.0000    0.13470   0.61710   0.12800   Biso      1.000     C          -0.102655           
         Cd1       1.0000    0.26210   0.02672   0.51603   Biso      1.000     Cd          1.040251  
         Cd2       1.0000    0.73790   0.97328   0.48397   Biso      1.000     Cd          1.040251  
         H1        1.0000    0.56550   0.82470   0.09380   Biso      1.000     H          0.112235  
         H2        1.0000    0.22450   0.69550   0.21320   Biso      1.000     H          0.114631  
         H3        1.0000    0.67310   0.80180   0.88150   Biso      1.000     H          0.124187  
         H4        1.0000    0.31290   0.48550   0.01230   Biso      1.000     H          0.121265  
         H5        1.0000    0.77550   0.30450   0.78680   Biso      1.000     H          0.11463   
         H6        1.0000    0.32690   0.19820   0.11850   Biso      1.000     H          0.124187  
         H7        1.0000    0.43450   0.17530   0.90620   Biso      1.000     H          0.112235  
         H8        1.0000    0.68710   0.51450   0.98770   Biso      1.000     H          0.121265  
         O1        1.0000    0.97750   0.89400   0.32690   Biso      1.000     O          -0.597914           
         O2        1.0000    0.42940   0.94360   0.32970   Biso      1.000     O          -0.603438           
         O3        1.0000    0.26720   0.13000   0.32820   Biso      1.000     O          -0.507235           
         O4        1.0000    0.26050   0.27210   0.71350   Biso      1.000     O          -0.514326           
         O5        1.0000    0.02250   0.10600   0.67310   Biso      1.000     O          -0.597914           
         O6        1.0000    0.57060   0.05640   0.67030   Biso      1.000     O          -0.603438           
         O7        1.0000    0.73280   0.87000   0.67180   Biso      1.000     O          -0.507236           
         O8        1.0000    0.73950   0.72790   0.28650   Biso      1.000     O          -0.514326 