
##########################################################################
#               Crystallographic Information Format file
#               Produced by PyCifRW module
#
#  This is a CIF file.  CIF has been adopted by the International
#  Union of Crystallography as the standard for data archiving and
#  transmission.
#
#  For information on this file format, follow the CIF links at
#  http://www.iucr.org
##########################################################################

data_image0

_cell_length_a                          10.7885
_cell_length_b                          13.6583
_cell_length_c                          14.7188
_cell_angle_alpha                       76.1028
_cell_angle_beta                        68.501
_cell_angle_gamma                       66.7377
_symmetry_space_group_name_H-M          'P 1'
_symmetry_int_tables_number             1
loop_
  _symmetry_equiv_pos_as_xyz
         'x, y, z' 
loop_
  _atom_site_label
  _atom_site_occupancy
  _atom_site_fract_x
  _atom_site_fract_y
  _atom_site_fract_z
  _atom_site_thermal_displace_type
  _atom_site_B_iso_or_equiv
  _atom_site_type_symbol
  _atom_site_charge
         C1        1.0000    0.83813   0.46160   0.70214   Biso      1.000     C          0.59921   
         C2        1.0000    0.94518   0.57756   0.56208   Biso      1.000     C          -0.103164           
         C3        1.0000    0.92358   0.48078   0.59766   Biso      1.000     C          -0.013491999999999999         
         C4        1.0000    0.16109   0.80127   0.49809   Biso      1.000     C          0.623711  
         C5        1.0000    0.33509   0.66476   0.69746   Biso      1.000     C          -0.101241           
         C6        1.0000    0.69517   0.02415   0.76131   Biso      1.000     C          0.6167159999999999  
         C7        1.0000    0.62892   0.94109   0.82127   Biso      1.000     C          -0.015172999999999999         
         C8        1.0000    0.50434   0.96792   0.89760   Biso      1.000     C          -0.100884           
         C9        1.0000    0.44914   0.88937   0.95675   Biso      1.000     C          -0.095623           
         C10       1.0000    0.51763   0.78346   0.93788   Biso      1.000     C          -0.035865           
         C11       1.0000    0.97917   0.40303   0.53523   Biso      1.000     C          -0.100187           
         C12       1.0000    0.64081   0.75691   0.85987   Biso      1.000     C          -0.102769           
         C13       1.0000    0.46045   0.69873   0.00191   Biso      1.000     C          0.622429  
         C14       1.0000    0.00187   0.03840   0.79786   Biso      1.000     C          0.599773  
         C15       1.0000    0.00202   0.01922   0.90234   Biso      1.000     C          -0.015728           
         C16       1.0000    0.08482   0.92244   0.93792   Biso      1.000     C          -0.101732           
         C17       1.0000    0.91743   0.09697   0.96477   Biso      1.000     C          -0.101664           
         C18       1.0000    0.48063   0.47585   0.73869   Biso      1.000     C          0.61587   
         C19       1.0000    0.39128   0.55891   0.67873   Biso      1.000     C          -0.013569           
         C20       1.0000    0.36986   0.53208   0.60240   Biso      1.000     C          -0.102797           
         C21       1.0000    0.29526   0.61063   0.54325   Biso      1.000     C          -0.09572699999999999          
         C22       1.0000    0.69731   0.83524   0.80254   Biso      1.000     C          -0.101493           
         C23       1.0000    0.30483   0.97585   0.23869   Biso      1.000     C          0.6167159999999999  
         C24       1.0000    0.37108   0.05891   0.17873   Biso      1.000     C          -0.015172999999999999         
         C25       1.0000    0.49566   0.03208   0.10240   Biso      1.000     C          -0.100884           
         C26       1.0000    0.02083   0.59697   0.46477   Biso      1.000     C          -0.100186           
         C27       1.0000    0.05482   0.42244   0.43792   Biso      1.000     C          -0.103164           
         C28       1.0000    0.07642   0.51922   0.40234   Biso      1.000     C          -0.013491999999999999         
         C29       1.0000    0.16187   0.53840   0.29786   Biso      1.000     C          0.59921   
         C30       1.0000    0.83891   0.19873   0.50191   Biso      1.000     C          0.623711  
         C31       1.0000    0.66491   0.33524   0.30254   Biso      1.000     C          -0.101241           
         C32       1.0000    0.74241   0.25691   0.35987   Biso      1.000     C          -0.10552  
         C33       1.0000    0.76103   0.28346   0.43788   Biso      1.000     C          -0.037045           
         C34       1.0000    0.70474   0.38937   0.45675   Biso      1.000     C          -0.095726           
         C35       1.0000    0.63014   0.46792   0.39760   Biso      1.000     C          -0.102799           
         C36       1.0000    0.60872   0.44109   0.32127   Biso      1.000     C          -0.013568           
         C37       1.0000    0.51937   0.52415   0.26131   Biso      1.000     C          0.61587   
         C38       1.0000    0.08257   0.90303   0.03523   Biso      1.000     C          -0.10166499999999999          
         C39       1.0000    0.91518   0.07756   0.06208   Biso      1.000     C          -0.101734           
         C40       1.0000    0.99798   0.98078   0.09766   Biso      1.000     C          -0.015725           
         C41       1.0000    0.99813   0.96160   0.20214   Biso      1.000     C          0.599773  
         C42       1.0000    0.53955   0.30127   0.99809   Biso      1.000     C          0.622429  
         C43       1.0000    0.30269   0.16476   0.19746   Biso      1.000     C          -0.101493           
         C44       1.0000    0.35919   0.24309   0.14013   Biso      1.000     C          -0.102769           
         C45       1.0000    0.48237   0.21654   0.06212   Biso      1.000     C          -0.035866           
         C46       1.0000    0.55086   0.11063   0.04325   Biso      1.000     C          -0.095621           
         C47       1.0000    0.23897   0.71654   0.56212   Biso      1.000     C          -0.037044           
         C48       1.0000    0.25759   0.74309   0.64013   Biso      1.000     C          -0.10552  
         Cd1       1.0000    0.99532   0.03870   0.61262   Biso      1.000     Cd          1.032161  
         Cd2       1.0000    0.35336   0.53870   0.11262   Biso      1.000     Cd          1.031179  
         Cd3       1.0000    0.64664   0.46130   0.88738   Biso      1.000     Cd          1.03118   
         Cd4       1.0000    0.00468   0.96130   0.38738   Biso      1.000     Cd          1.032161  
         Cd5       1.0000    0.71817   0.25000   0.75000   Biso      1.000     Cd          1.155882  
         Cd6       1.0000    0.28183   0.75000   0.25000   Biso      1.000     Cd          1.155882  
         H1        1.0000    0.03430   0.66440   0.44100   Biso      1.000     H          0.111478  
         H2        1.0000    0.45570   0.04070   0.90990   Biso      1.000     H          0.119276  
         H3        1.0000    0.36450   0.90850   0.01010   Biso      1.000     H          0.11321300000000001           
         H4        1.0000    0.68710   0.68460   0.84540   Biso      1.000     H          0.11238   
         H5        1.0000    0.78330   0.81590   0.75030   Biso      1.000     H          0.12066700000000001           
         H6        1.0000    0.14400   0.86850   0.89530   Biso      1.000     H          0.11964200000000001           
         H7        1.0000    0.86030   0.16440   0.94100   Biso      1.000     H          0.11292999999999999           
         H8        1.0000    0.40630   0.45930   0.59010   Biso      1.000     H          0.120084  
         H9        1.0000    0.28310   0.59150   0.48990   Biso      1.000     H          0.114317  
         H10       1.0000    0.21710   0.81540   0.65460   Biso      1.000     H          0.114212  
         H11       1.0000    0.09220   0.36850   0.39530   Biso      1.000     H          0.119555  
         H12       1.0000    0.90780   0.63150   0.60470   Biso      1.000     H          0.119555  
         H13       1.0000    0.34950   0.68410   0.74970   Biso      1.000     H          0.120581  
         H14       1.0000    0.78290   0.18460   0.34540   Biso      1.000     H          0.114212  
         H15       1.0000    0.71690   0.40850   0.51010   Biso      1.000     H          0.114317  
         H16       1.0000    0.59370   0.54070   0.40990   Biso      1.000     H          0.120084  
         H17       1.0000    0.13970   0.83560   0.05900   Biso      1.000     H          0.11292999999999999           
         H18       1.0000    0.65050   0.31590   0.25030   Biso      1.000     H          0.120581  
         H19       1.0000    0.21670   0.18410   0.24970   Biso      1.000     H          0.12066700000000001           
         H20       1.0000    0.31290   0.31540   0.15460   Biso      1.000     H          0.11238   
         H21       1.0000    0.63550   0.09150   0.98990   Biso      1.000     H          0.11321300000000001           
         H22       1.0000    0.54430   0.95930   0.09010   Biso      1.000     H          0.119276  
         H23       1.0000    0.96570   0.33560   0.55900   Biso      1.000     H          0.111478  
         H24       1.0000    0.85600   0.13150   0.10470   Biso      1.000     H          0.11964200000000001           
         O1        1.0000    0.19721   0.00627   0.30891   Biso      1.000     O          -0.587754           
         O2        1.0000    0.63701   0.27994   0.91854   Biso      1.000     O          -0.587676           
         O3        1.0000    0.49223   0.39328   0.02518   Biso      1.000     O          -0.575094           
         O4        1.0000    0.06799   0.87136   0.23516   Biso      1.000     O          -0.606256           
         O5        1.0000    0.45897   0.61657   0.28791   Biso      1.000     O          -0.582677           
         O6        1.0000    0.51239   0.49373   0.19109   Biso      1.000     O          -0.586569           
         O7        1.0000    0.83549   0.22006   0.58146   Biso      1.000     O          -0.587358           
         O8        1.0000    0.91069   0.10672   0.47482   Biso      1.000     O          -0.575771           
         O9        1.0000    0.36345   0.88343   0.21209   Biso      1.000     O          -0.5826859999999999           
         O10       1.0000    0.92630   0.03673   0.25427   Biso      1.000     O          -0.5367069999999999           
         O11       1.0000    0.78270   0.53673   0.75427   Biso      1.000     O          -0.536682           
         O12       1.0000    0.07370   0.96327   0.74573   Biso      1.000     O          -0.5367069999999999           
         O13       1.0000    0.08931   0.89328   0.52518   Biso      1.000     O          -0.575771           
         O14       1.0000    0.16451   0.77994   0.41854   Biso      1.000     O          -0.587358           
         O15       1.0000    0.48761   0.50627   0.80891   Biso      1.000     O          -0.586569           
         O16       1.0000    0.54103   0.38343   0.71209   Biso      1.000     O          -0.582677           
         O17       1.0000    0.93201   0.12864   0.76484   Biso      1.000     O          -0.606256           
         O18       1.0000    0.50777   0.60672   0.97482   Biso      1.000     O          -0.575094           
         O19       1.0000    0.36299   0.72006   0.08146   Biso      1.000     O          -0.587676           
         O20       1.0000    0.80279   0.99373   0.69109   Biso      1.000     O          -0.587754           
         O21       1.0000    0.63655   0.11657   0.78791   Biso      1.000     O          -0.5826859999999999           
         O22       1.0000    0.17451   0.62864   0.26484   Biso      1.000     O          -0.6063649999999999           
         O23       1.0000    0.82549   0.37136   0.73516   Biso      1.000     O          -0.606366           
         O24       1.0000    0.21730   0.46327   0.24573   Biso      1.000     O          -0.5366810000000001 