
##########################################################################
#               Crystallographic Information Format file
#               Produced by PyCifRW module
#
#  This is a CIF file.  CIF has been adopted by the International
#  Union of Crystallography as the standard for data archiving and
#  transmission.
#
#  For information on this file format, follow the CIF links at
#  http://www.iucr.org
##########################################################################

data_image0

_cell_length_a                          7.4523
_cell_length_b                          9.7764
_cell_length_c                          9.8469
_cell_angle_alpha                       118.255
_cell_angle_beta                        102.118
_cell_angle_gamma                       91.358
_symmetry_space_group_name_H-M          'P 1'
_symmetry_int_tables_number             1
loop_
  _symmetry_equiv_pos_as_xyz
         'x, y, z' 
loop_
  _atom_site_label
  _atom_site_occupancy
  _atom_site_fract_x
  _atom_site_fract_y
  _atom_site_fract_z
  _atom_site_thermal_displace_type
  _atom_site_B_iso_or_equiv
  _atom_site_type_symbol
  _atom_site_charge
         C1        1.0000    0.36530   0.38290   0.87230   Biso      1.000     C          -0.103413           
         C2        1.0000    0.31350   0.50840   0.99410   Biso      1.000     C          -0.095235           
         C3        1.0000    0.63470   0.61710   0.12770   Biso      1.000     C          -0.103413           
         C4        1.0000    0.44650   0.62580   0.12170   Biso      1.000     C          -0.012568           
         C5        1.0000    0.38640   0.75770   0.25430   Biso      1.000     C          0.578526  
         C6        1.0000    0.95950   0.10400   0.94270   Biso      1.000     C          -0.10994  
         C7        1.0000    0.10370   0.88100   0.92770   Biso      1.000     C          -0.089607           
         C8        1.0000    0.06300   0.98610   0.87090   Biso      1.000     C          -0.020014           
         C9        1.0000    0.12650   0.96780   0.72870   Biso      1.000     C          0.566665  
         C10       1.0000    0.68650   0.49160   0.00590   Biso      1.000     C          -0.095235           
         C11       1.0000    0.87350   0.03220   0.27130   Biso      1.000     C          0.566665  
         C12       1.0000    0.93700   0.01390   0.12910   Biso      1.000     C          -0.020014           
         C13       1.0000    0.89630   0.11900   0.07230   Biso      1.000     C          -0.089608           
         C14       1.0000    0.04050   0.89600   0.05730   Biso      1.000     C          -0.10994  
         C15       1.0000    0.61360   0.24230   0.74570   Biso      1.000     C          0.578526  
         C16       1.0000    0.55350   0.37420   0.87830   Biso      1.000     C          -0.012568           
         Cd1       1.0000    0.76214   0.02622   0.51570   Biso      1.000     Cd          1.041754  
         Cd2       1.0000    0.23786   0.97378   0.48430   Biso      1.000     Cd          1.041755  
         H1        1.0000    0.82600   0.20030   0.12160   Biso      1.000     H          0.124324  
         H2        1.0000    0.06860   0.82500   0.09650   Biso      1.000     H          0.110992  
         H3        1.0000    0.27370   0.30330   0.78530   Biso      1.000     H          0.115311  
         H4        1.0000    0.18570   0.51440   0.99060   Biso      1.000     H          0.11969   
         H5        1.0000    0.17400   0.79970   0.87840   Biso      1.000     H          0.124324  
         H6        1.0000    0.93140   0.17500   0.90350   Biso      1.000     H          0.110992  
         H7        1.0000    0.72630   0.69670   0.21470   Biso      1.000     H          0.115311  
         H8        1.0000    0.81430   0.48560   0.00940   Biso      1.000     H          0.11969   
         O1        1.0000    0.47930   0.89390   0.32710   Biso      1.000     O          -0.600143           
         O2        1.0000    0.76790   0.12900   0.32800   Biso      1.000     O          -0.508491           
         O3        1.0000    0.93040   0.94370   0.32960   Biso      1.000     O          -0.603666           
         O4        1.0000    0.52070   0.10610   0.67290   Biso      1.000     O          -0.600143           
         O5        1.0000    0.75910   0.27020   0.71260   Biso      1.000     O          -0.514183           
         O6        1.0000    0.23210   0.87100   0.67200   Biso      1.000     O          -0.508491           
         O7        1.0000    0.06960   0.05630   0.67040   Biso      1.000     O          -0.603666           
         O8        1.0000    0.24090   0.72980   0.28740   Biso      1.000     O          -0.514183 