
##########################################################################
#               Crystallographic Information Format file
#               Produced by PyCifRW module
#
#  This is a CIF file.  CIF has been adopted by the International
#  Union of Crystallography as the standard for data archiving and
#  transmission.
#
#  For information on this file format, follow the CIF links at
#  http://www.iucr.org
##########################################################################

data_image0

_cell_length_a                          27.837
_cell_length_b                          9.892
_cell_length_c                          10.446
_cell_angle_alpha                       90
_cell_angle_beta                        90
_cell_angle_gamma                       90
_symmetry_space_group_name_H-M          'P 1'
_symmetry_int_tables_number             1
loop_
  _symmetry_equiv_pos_as_xyz
         'x, y, z' 
loop_
  _atom_site_label
  _atom_site_occupancy
  _atom_site_fract_x
  _atom_site_fract_y
  _atom_site_fract_z
  _atom_site_thermal_displace_type
  _atom_site_B_iso_or_equiv
  _atom_site_type_symbol
  _atom_site_charge
         C1        1.0000    0.19769   0.05780   0.46470   Biso      1.000     C          0.67161   
         C2        1.0000    0.20927   0.81270   0.28300   Biso      1.000     C          0.598623  
         C3        1.0000    0.17912   0.81320   0.40470   Biso      1.000     C          0.068429  
         C4        1.0000    0.15983   0.95340   0.43050   Biso      1.000     C          -0.392235           
         C5        1.0000    0.88048   0.56610   0.52870   Biso      1.000     C          0.100182  
         C6        1.0000    0.91986   0.49490   0.56360   Biso      1.000     C          -0.214147           
         C7        1.0000    0.91734   0.40760   0.66830   Biso      1.000     C          0.106556  
         C8        1.0000    0.28702   0.03780   0.02120   Biso      1.000     C          0.589425  
         C9        1.0000    0.87430   0.40000   0.73410   Biso      1.000     C          -0.198545           
         C10       1.0000    0.95936   0.33010   0.71410   Biso      1.000     C          0.072692  
         C11       1.0000    0.98861   0.25850   0.62540   Biso      1.000     C          -0.147276           
         C12       1.0000    0.02668   0.18150   0.66830   Biso      1.000     C          -0.133788           
         C13       1.0000    0.03843   0.17680   0.79400   Biso      1.000     C          0.079897  
         C14       1.0000    0.01027   0.24240   0.88030   Biso      1.000     C          -0.141314           
         C15       1.0000    0.97055   0.31460   0.83850   Biso      1.000     C          -0.131689           
         C16       1.0000    0.83634   0.47660   0.68880   Biso      1.000     C          0.096297  
         C17       1.0000    0.07916   0.09230   0.83650   Biso      1.000     C          0.108119  
         C18       1.0000    0.31578   0.90720   0.00210   Biso      1.000     C          0.060137  
         C19       1.0000    0.28720   0.87720   0.76800   Biso      1.000     C          0.689128  
         C20       1.0000    0.41734   0.09240   0.33170   Biso      1.000     C          0.106557  
         C21       1.0000    0.37430   0.10000   0.26590   Biso      1.000     C          -0.198546           
         C22       1.0000    0.33634   0.02340   0.31120   Biso      1.000     C          0.096297  
         C23       1.0000    0.45936   0.16990   0.28590   Biso      1.000     C          0.072692  
         C24       1.0000    0.48861   0.24150   0.37460   Biso      1.000     C          -0.147276           
         C25       1.0000    0.52668   0.31850   0.33170   Biso      1.000     C          -0.133788           
         C26       1.0000    0.32807   0.89310   0.86010   Biso      1.000     C          -0.389103           
         C27       1.0000    0.53843   0.32320   0.20600   Biso      1.000     C          0.079897  
         C28       1.0000    0.47055   0.18540   0.16150   Biso      1.000     C          -0.131692           
         C29       1.0000    0.57916   0.40770   0.16350   Biso      1.000     C          0.108119  
         C30       1.0000    0.62141   0.41510   0.22570   Biso      1.000     C          -0.188518           
         C31       1.0000    0.65908   0.49290   0.18540   Biso      1.000     C          0.09677   
         C32       1.0000    0.61627   0.56610   0.01670   Biso      1.000     C          0.091108  
         C33       1.0000    0.57773   0.48870   0.05330   Biso      1.000     C          -0.211322           
         C34       1.0000    0.51027   0.25760   0.11970   Biso      1.000     C          -0.141312           
         C35       1.0000    0.41986   0.00510   0.43640   Biso      1.000     C          -0.214164           
         C36       1.0000    0.12141   0.08490   0.77430   Biso      1.000     C          -0.188518           
         C37       1.0000    0.11627   0.93390   0.98330   Biso      1.000     C          0.091108  
         C38       1.0000    0.98973   0.75760   0.88030   Biso      1.000     C          -0.141322           
         C39       1.0000    0.02945   0.68540   0.83850   Biso      1.000     C          -0.131708           
         C40       1.0000    0.92084   0.90770   0.83650   Biso      1.000     C          0.108119  
         C41       1.0000    0.87859   0.91510   0.77430   Biso      1.000     C          -0.188518           
         C42       1.0000    0.84092   0.99290   0.81460   Biso      1.000     C          0.096771  
         C43       1.0000    0.88373   0.06610   0.98330   Biso      1.000     C          0.091108  
         C44       1.0000    0.96157   0.82320   0.79400   Biso      1.000     C          0.079893  
         C45       1.0000    0.92227   0.98870   0.94670   Biso      1.000     C          -0.211321           
         C46       1.0000    0.17193   0.39310   0.13990   Biso      1.000     C          -0.389103           
         C47       1.0000    0.18422   0.40720   0.99790   Biso      1.000     C          0.060137  
         C48       1.0000    0.21298   0.53780   0.97880   Biso      1.000     C          0.589425  
         C49       1.0000    0.29073   0.31270   0.71700   Biso      1.000     C          0.598624  
         C50       1.0000    0.32088   0.31320   0.59530   Biso      1.000     C          0.068429  
         C51       1.0000    0.34017   0.45340   0.56950   Biso      1.000     C          -0.392234           
         C52       1.0000    0.21280   0.37720   0.23200   Biso      1.000     C          0.689128  
         C53       1.0000    0.15908   0.00710   0.81460   Biso      1.000     C          0.096771  
         C54       1.0000    0.97332   0.81850   0.66830   Biso      1.000     C          -0.133774           
         C55       1.0000    0.04064   0.66990   0.71410   Biso      1.000     C          0.07271   
         C56       1.0000    0.07773   0.01130   0.94670   Biso      1.000     C          -0.21132  
         C57       1.0000    0.78720   0.62280   0.23200   Biso      1.000     C          0.689128  
         C58       1.0000    0.82807   0.60690   0.13990   Biso      1.000     C          -0.389103           
         C59       1.0000    0.81578   0.59280   0.99790   Biso      1.000     C          0.060137  
         C60       1.0000    0.78702   0.46220   0.97880   Biso      1.000     C          0.589425  
         C61       1.0000    0.70927   0.68730   0.71700   Biso      1.000     C          0.598624  
         C62       1.0000    0.01139   0.74150   0.62540   Biso      1.000     C          -0.147276           
         C63       1.0000    0.67912   0.68680   0.59530   Biso      1.000     C          0.06843   
         C64       1.0000    0.69769   0.44220   0.53530   Biso      1.000     C          0.67161   
         C65       1.0000    0.11952   0.43390   0.52870   Biso      1.000     C          0.100182  
         C66       1.0000    0.08014   0.50510   0.56360   Biso      1.000     C          -0.214147           
         C67       1.0000    0.08266   0.59240   0.66830   Biso      1.000     C          0.106555  
         C68       1.0000    0.12570   0.60000   0.73410   Biso      1.000     C          -0.198545           
         C69       1.0000    0.16366   0.52340   0.68880   Biso      1.000     C          0.096297  
         C70       1.0000    0.65983   0.54660   0.56950   Biso      1.000     C          -0.392235           
         C71       1.0000    0.38048   0.93390   0.47130   Biso      1.000     C          0.100199  
         C72       1.0000    0.30231   0.55780   0.53530   Biso      1.000     C          0.67161   
         C73       1.0000    0.46157   0.67680   0.20600   Biso      1.000     C          0.079882  
         C74       1.0000    0.80231   0.94220   0.46470   Biso      1.000     C          0.67161   
         C75       1.0000    0.47332   0.68150   0.33170   Biso      1.000     C          -0.133773           
         C76       1.0000    0.84017   0.04660   0.43050   Biso      1.000     C          -0.392234           
         C77       1.0000    0.67193   0.10690   0.86010   Biso      1.000     C          -0.389102           
         C78       1.0000    0.48973   0.74240   0.11970   Biso      1.000     C          -0.14131  
         C79       1.0000    0.82088   0.18680   0.40470   Biso      1.000     C          0.068429  
         C80       1.0000    0.79073   0.18730   0.28300   Biso      1.000     C          0.598623  
         C81       1.0000    0.51139   0.75850   0.37460   Biso      1.000     C          -0.147276           
         C82       1.0000    0.71298   0.96220   0.02120   Biso      1.000     C          0.589425  
         C83       1.0000    0.68422   0.09280   0.00210   Biso      1.000     C          0.060137  
         C84       1.0000    0.42084   0.59230   0.16350   Biso      1.000     C          0.10812   
         C85       1.0000    0.37859   0.58490   0.22570   Biso      1.000     C          -0.188518           
         C86       1.0000    0.34092   0.50710   0.18540   Biso      1.000     C          0.09677   
         C87       1.0000    0.38373   0.43390   0.01670   Biso      1.000     C          0.091108  
         C88       1.0000    0.42227   0.51130   0.05330   Biso      1.000     C          -0.211322           
         C89       1.0000    0.71280   0.12280   0.76800   Biso      1.000     C          0.689128  
         C90       1.0000    0.52945   0.81460   0.16150   Biso      1.000     C          -0.13171  
         C91       1.0000    0.54064   0.83010   0.28590   Biso      1.000     C          0.07271   
         C92       1.0000    0.62570   0.90000   0.26590   Biso      1.000     C          -0.198547           
         C93       1.0000    0.61952   0.06610   0.47130   Biso      1.000     C          0.100183  
         C94       1.0000    0.58014   0.99490   0.43640   Biso      1.000     C          -0.214147           
         C95       1.0000    0.58266   0.90760   0.33170   Biso      1.000     C          0.106556  
         C96       1.0000    0.66366   0.97660   0.31120   Biso      1.000     C          0.096297  
         H1        1.0000    0.80230   0.20260   0.58880   Biso      1.000     H          0.302614  
         H2        1.0000    0.01780   0.23870   0.96900   Biso      1.000     H          0.11266   
         H3        1.0000    0.37470   0.63660   0.30170   Biso      1.000     H          0.121883  
         H4        1.0000    0.28930   0.17360   0.48580   Biso      1.000     H          0.314225  
         H5        1.0000    0.04500   0.13080   0.60850   Biso      1.000     H          0.113599  
         H6        1.0000    0.31190   0.50800   0.23340   Biso      1.000     H          0.103726  
         H7        1.0000    0.98190   0.26360   0.53640   Biso      1.000     H          0.110632  
         H8        1.0000    0.65160   0.75070   0.60600   Biso      1.000     H          0.076577  
         H9        1.0000    0.30230   0.29740   0.41120   Biso      1.000     H          0.302614  
         H10       1.0000    0.80640   0.46930   0.73200   Biso      1.000     H          0.099185  
         H11       1.0000    0.38640   0.38080   0.94120   Biso      1.000     H          0.094555  
         H12       1.0000    0.87090   0.34430   0.80760   Biso      1.000     H          0.134308  
         H13       1.0000    0.62910   0.84430   0.19240   Biso      1.000     H          0.134308  
         H14       1.0000    0.45060   0.51010   0.00270   Biso      1.000     H          0.109651  
         H15       1.0000    0.94900   0.50430   0.51710   Biso      1.000     H          0.118413  
         H16       1.0000    0.11700   0.37590   0.45650   Biso      1.000     H          0.092368  
         H17       1.0000    0.88300   0.62410   0.45650   Biso      1.000     H          0.092367  
         H18       1.0000    0.55100   0.00430   0.48290   Biso      1.000     H          0.118414  
         H19       1.0000    0.54980   0.85500   0.09930   Biso      1.000     H          0.111902  
         H20       1.0000    0.12910   0.65570   0.80760   Biso      1.000     H          0.134308  
         H21       1.0000    0.69360   0.96930   0.26800   Biso      1.000     H          0.099185  
         H22       1.0000    0.63640   0.55200   0.49850   Biso      1.000     H          0.129646  
         H23       1.0000    0.64240   0.51510   0.64650   Biso      1.000     H          0.148555  
         H24       1.0000    0.51810   0.76360   0.46360   Biso      1.000     H          0.110632  
         H25       1.0000    0.84610   0.58850   0.94660   Biso      1.000     H          0.067631  
         H26       1.0000    0.95500   0.86920   0.60850   Biso      1.000     H          0.113598  
         H27       1.0000    0.84950   0.68620   0.14970   Biso      1.000     H          0.141342  
         H28       1.0000    0.84670   0.52620   0.16560   Biso      1.000     H          0.143958  
         H29       1.0000    0.45500   0.63080   0.39150   Biso      1.000     H          0.113598  
         H30       1.0000    0.01810   0.73640   0.53640   Biso      1.000     H          0.110632  
         H31       1.0000    0.04940   0.01010   0.99730   Biso      1.000     H          0.10965   
         H32       1.0000    0.21090   0.28030   0.86910   Biso      1.000     H          0.309713  
         H33       1.0000    0.20260   0.21340   0.99560   Biso      1.000     H          0.309726  
         H34       1.0000    0.61700   0.12410   0.54350   Biso      1.000     H          0.092367  
         H35       1.0000    0.11360   0.88080   0.05880   Biso      1.000     H          0.094554  
         H36       1.0000    0.48220   0.73870   0.03100   Biso      1.000     H          0.112661  
         H37       1.0000    0.19360   0.53070   0.73200   Biso      1.000     H          0.099185  
         H38       1.0000    0.18810   0.00800   0.76660   Biso      1.000     H          0.103727  
         H39       1.0000    0.12530   0.13660   0.69830   Biso      1.000     H          0.121883  
         H40       1.0000    0.95020   0.35500   0.90070   Biso      1.000     H          0.1119    
         H41       1.0000    0.05100   0.49570   0.51710   Biso      1.000     H          0.118413  
         H42       1.0000    0.71070   0.82640   0.48580   Biso      1.000     H          0.314225  
         H43       1.0000    0.61360   0.61920   0.94120   Biso      1.000     H          0.094554  
         H44       1.0000    0.69770   0.70260   0.41120   Biso      1.000     H          0.302614  
         H45       1.0000    0.86360   0.05200   0.50150   Biso      1.000     H          0.129647  
         H46       1.0000    0.62530   0.36340   0.30170   Biso      1.000     H          0.121883  
         H47       1.0000    0.85760   0.01510   0.35350   Biso      1.000     H          0.148555  
         H48       1.0000    0.45020   0.14500   0.09930   Biso      1.000     H          0.111901  
         H49       1.0000    0.15330   0.47380   0.16560   Biso      1.000     H          0.143958  
         H50       1.0000    0.51780   0.26130   0.03100   Biso      1.000     H          0.112661  
         H51       1.0000    0.15050   0.31380   0.14970   Biso      1.000     H          0.141341  
         H52       1.0000    0.71090   0.21970   0.13090   Biso      1.000     H          0.309712  
         H53       1.0000    0.54500   0.36920   0.39150   Biso      1.000     H          0.113599  
         H54       1.0000    0.15390   0.41150   0.94660   Biso      1.000     H          0.067631  
         H55       1.0000    0.48190   0.23640   0.46360   Biso      1.000     H          0.110632  
         H56       1.0000    0.28910   0.78030   0.13090   Biso      1.000     H          0.309712  
         H57       1.0000    0.30640   0.03070   0.26800   Biso      1.000     H          0.099185  
         H58       1.0000    0.29740   0.71340   0.00440   Biso      1.000     H          0.309726  
         H59       1.0000    0.37090   0.15570   0.19240   Biso      1.000     H          0.134308  
         H60       1.0000    0.44900   0.99570   0.48290   Biso      1.000     H          0.118414  
         H61       1.0000    0.34840   0.24930   0.60600   Biso      1.000     H          0.076576  
         H62       1.0000    0.38300   0.87590   0.54350   Biso      1.000     H          0.092366  
         H63       1.0000    0.36360   0.44800   0.49850   Biso      1.000     H          0.129646  
         H64       1.0000    0.19770   0.79740   0.58880   Biso      1.000     H          0.302614  
         H65       1.0000    0.21070   0.67360   0.51420   Biso      1.000     H          0.314225  
         H66       1.0000    0.84840   0.25070   0.39400   Biso      1.000     H          0.076577  
         H67       1.0000    0.54940   0.48990   0.00270   Biso      1.000     H          0.10965   
         H68       1.0000    0.68810   0.49200   0.23340   Biso      1.000     H          0.103726  
         H69       1.0000    0.34950   0.81380   0.85030   Biso      1.000     H          0.141341  
         H70       1.0000    0.81190   0.99200   0.76660   Biso      1.000     H          0.103727  
         H71       1.0000    0.79740   0.78660   0.99560   Biso      1.000     H          0.309726  
         H72       1.0000    0.98220   0.76130   0.96900   Biso      1.000     H          0.11266   
         H73       1.0000    0.78910   0.71970   0.86910   Biso      1.000     H          0.309712  
         H74       1.0000    0.34670   0.97380   0.83440   Biso      1.000     H          0.143956  
         H75       1.0000    0.78930   0.32640   0.51420   Biso      1.000     H          0.314225  
         H76       1.0000    0.88640   0.11920   0.05880   Biso      1.000     H          0.094554  
         H77       1.0000    0.04980   0.64500   0.90070   Biso      1.000     H          0.111902  
         H78       1.0000    0.70260   0.28660   0.00440   Biso      1.000     H          0.309726  
         H79       1.0000    0.95060   0.98990   0.99730   Biso      1.000     H          0.10965   
         H80       1.0000    0.14240   0.98490   0.35350   Biso      1.000     H          0.148555  
         H81       1.0000    0.13640   0.94800   0.50150   Biso      1.000     H          0.129647  
         H82       1.0000    0.65330   0.02620   0.83440   Biso      1.000     H          0.143956  
         H83       1.0000    0.15160   0.74930   0.39400   Biso      1.000     H          0.076577  
         H84       1.0000    0.65050   0.18620   0.85030   Biso      1.000     H          0.14134   
         H85       1.0000    0.65390   0.08850   0.05340   Biso      1.000     H          0.067631  
         H86       1.0000    0.34610   0.91150   0.05340   Biso      1.000     H          0.067631  
         H87       1.0000    0.35760   0.48490   0.64650   Biso      1.000     H          0.148554  
         H88       1.0000    0.87470   0.86340   0.69830   Biso      1.000     H          0.121883  
         N1        1.0000    0.16120   0.43990   0.58882   Biso      1.000     N          -0.205292           
         N2        1.0000    0.33880   0.93990   0.41118   Biso      1.000     N          -0.205294           
         N3        1.0000    0.29037   0.26660   0.48805   Biso      1.000     N          -0.658545           
         N4        1.0000    0.70963   0.73340   0.48805   Biso      1.000     N          -0.658546           
         N5        1.0000    0.20963   0.76660   0.51195   Biso      1.000     N          -0.658545           
         N6        1.0000    0.79037   0.23340   0.51195   Biso      1.000     N          -0.658544           
         N7        1.0000    0.34351   0.43000   0.08120   Biso      1.000     N          -0.203481           
         N8        1.0000    0.71294   0.20860   0.04363   Biso      1.000     N          -0.65916  
         N9        1.0000    0.21294   0.29140   0.95637   Biso      1.000     N          -0.65916  
         N10       1.0000    0.66120   0.06010   0.41118   Biso      1.000     N          -0.205292           
         N11       1.0000    0.28706   0.79140   0.04363   Biso      1.000     N          -0.65916  
         N12       1.0000    0.78706   0.70860   0.95637   Biso      1.000     N          -0.659158           
         N13       1.0000    0.84351   0.07000   0.91880   Biso      1.000     N          -0.203481           
         N14       1.0000    0.65649   0.57000   0.08120   Biso      1.000     N          -0.203481           
         N15       1.0000    0.15649   0.93000   0.91880   Biso      1.000     N          -0.203481           
         N16       1.0000    0.83880   0.56010   0.58882   Biso      1.000     N          -0.205292           
         Ni1       1.0000    0.78181   0.16436   0.99058   Biso      1.000     Ni          0.804474  
         Ni2       1.0000    0.72340   0.15539   0.47870   Biso      1.000     Ni          0.822489  
         Ni3       1.0000    0.77660   0.65539   0.52130   Biso      1.000     Ni          0.822491  
         Ni4       1.0000    0.27660   0.84461   0.47870   Biso      1.000     Ni          0.82249   
         Ni5       1.0000    0.28181   0.33564   0.00942   Biso      1.000     Ni          0.804472  
         Ni6       1.0000    0.22340   0.34461   0.52130   Biso      1.000     Ni          0.82249   
         Ni7       1.0000    0.71819   0.66436   0.00942   Biso      1.000     Ni          0.804471  
         Ni8       1.0000    0.21819   0.83564   0.99058   Biso      1.000     Ni          0.804473  
         O1        1.0000    0.25891   0.52824   0.54510   Biso      1.000     O          -0.553756           
         O2        1.0000    0.68951   0.85589   0.02648   Biso      1.000     O          -0.554613           
         O3        1.0000    0.74626   0.65650   0.19756   Biso      1.000     O          -0.55865  
         O4        1.0000    0.75749   0.97198   0.02599   Biso      1.000     O          -0.528724           
         O5        1.0000    0.24626   0.84350   0.80244   Biso      1.000     O          -0.558651           
         O6        1.0000    0.29955   0.90000   0.65583   Biso      1.000     O          -0.580805           
         O7        1.0000    0.70045   0.10000   0.65583   Biso      1.000     O          -0.580804           
         O8        1.0000    0.31049   0.14411   0.02648   Biso      1.000     O          -0.554613           
         O9        1.0000    0.18809   0.82710   0.17924   Biso      1.000     O          -0.555117           
         O10       1.0000    0.75374   0.15650   0.80244   Biso      1.000     O          -0.558651           
         O11       1.0000    0.25395   0.79713   0.29598   Biso      1.000     O          -0.540629           
         O12       1.0000    0.24251   0.02802   0.02599   Biso      1.000     O          -0.528724           
         O13       1.0000    0.81191   0.17290   0.17924   Biso      1.000     O          -0.555117           
         O14       1.0000    0.74251   0.47198   0.97401   Biso      1.000     O          -0.528723           
         O15       1.0000    0.31758   0.67226   0.50260   Biso      1.000     O          -0.576093           
         O16       1.0000    0.24605   0.29713   0.70402   Biso      1.000     O          -0.54063  
         O17       1.0000    0.31191   0.32710   0.82076   Biso      1.000     O          -0.555117           
         O18       1.0000    0.18951   0.64411   0.97352   Biso      1.000     O          -0.554614           
         O19       1.0000    0.25749   0.52802   0.97401   Biso      1.000     O          -0.528723           
         O20       1.0000    0.20045   0.40000   0.34417   Biso      1.000     O          -0.580804           
         O21       1.0000    0.25374   0.34350   0.19756   Biso      1.000     O          -0.55865  
         O22       1.0000    0.24109   0.02824   0.45490   Biso      1.000     O          -0.553755           
         O23       1.0000    0.68242   0.32774   0.50260   Biso      1.000     O          -0.576093           
         O24       1.0000    0.74109   0.47176   0.54510   Biso      1.000     O          -0.553756           
         O25       1.0000    0.75395   0.70287   0.70402   Biso      1.000     O          -0.54063  
         O26       1.0000    0.68809   0.67290   0.82076   Biso      1.000     O          -0.555116           
         O27       1.0000    0.81758   0.82774   0.49740   Biso      1.000     O          -0.576093           
         O28       1.0000    0.75891   0.97176   0.45490   Biso      1.000     O          -0.553755           
         O29       1.0000    0.81049   0.35589   0.97352   Biso      1.000     O          -0.554614           
         O30       1.0000    0.74605   0.20287   0.29598   Biso      1.000     O          -0.540629           
         O31       1.0000    0.79955   0.60000   0.34417   Biso      1.000     O          -0.580804           
         O32       1.0000    0.18242   0.17226   0.49740   Biso      1.000     O          -0.576093 