
##########################################################################
#               Crystallographic Information Format file
#               Produced by PyCifRW module
#
#  This is a CIF file.  CIF has been adopted by the International
#  Union of Crystallography as the standard for data archiving and
#  transmission.
#
#  For information on this file format, follow the CIF links at
#  http://www.iucr.org
##########################################################################

data_image0

_cell_length_a                          6.429
_cell_length_b                          25.18
_cell_length_c                          7.874
_cell_angle_alpha                       90
_cell_angle_beta                        90.101
_cell_angle_gamma                       90
_symmetry_space_group_name_H-M          'P 1'
_symmetry_int_tables_number             1
loop_
  _symmetry_equiv_pos_as_xyz
         'x, y, z' 
loop_
  _atom_site_label
  _atom_site_occupancy
  _atom_site_fract_x
  _atom_site_fract_y
  _atom_site_fract_z
  _atom_site_thermal_displace_type
  _atom_site_B_iso_or_equiv
  _atom_site_type_symbol
  _atom_site_charge
         C1        1.0000    0.16100   0.22080   0.12270   Biso      1.000     C          0.590202  
         C2        1.0000    0.77990   0.12380   0.70100   Biso      1.000     C          0.07877999999999999           
         C3        1.0000    0.22010   0.62380   0.29900   Biso      1.000     C          0.078776  
         C4        1.0000    0.34150   0.58030   0.34150   Biso      1.000     C          -0.208184           
         C5        1.0000    0.54260   0.57460   0.27340   Biso      1.000     C          0.14284000000000002           
         C6        1.0000    0.61530   0.61790   0.17980   Biso      1.000     C          -0.197684           
         C7        1.0000    0.33570   0.19640   0.23370   Biso      1.000     C          0.040124  
         C8        1.0000    0.49380   0.66270   0.16550   Biso      1.000     C          0.10478499999999999           
         C9        1.0000    0.65600   0.52500   0.28500   Biso      1.000     C          -0.133638           
         C10       1.0000    0.21900   0.18030   0.39580   Biso      1.000     C          -0.380569           
         C11       1.0000    0.83900   0.72080   0.87730   Biso      1.000     C          0.590199  
         C12       1.0000    0.01340   0.37580   0.33490   Biso      1.000     C          0.097063  
         C13       1.0000    0.88690   0.42000   0.31640   Biso      1.000     C          -0.194825           
         C14       1.0000    0.69300   0.30990   0.03180   Biso      1.000     C          0.5996020000000001  
         C15       1.0000    0.96020   0.46560   0.23230   Biso      1.000     C          0.139318  
         C16       1.0000    0.16280   0.46230   0.16930   Biso      1.000     C          -0.21176599999999998          
         C17       1.0000    0.27040   0.41520   0.18220   Biso      1.000     C          0.082103  
         C18       1.0000    0.83100   0.51220   0.20900   Biso      1.000     C          -0.123904           
         C19       1.0000    0.16900   0.01220   0.79100   Biso      1.000     C          -0.12393499999999999          
         C20       1.0000    0.83260   0.34290   0.91120   Biso      1.000     C          0.068633  
         C21       1.0000    0.64200   0.32410   0.62700   Biso      1.000     C          0.659938  
         C22       1.0000    0.17600   0.22820   0.51770   Biso      1.000     C          0.638147  
         C23       1.0000    0.65850   0.08030   0.65850   Biso      1.000     C          -0.208186           
         C24       1.0000    0.70650   0.36410   0.76840   Biso      1.000     C          -0.386914           
         C25       1.0000    0.82400   0.72820   0.48230   Biso      1.000     C          0.6381439999999999  
         C26       1.0000    0.11310   0.92000   0.68360   Biso      1.000     C          -0.194823           
         C27       1.0000    0.83720   0.96230   0.83070   Biso      1.000     C          -0.21176599999999998          
         C28       1.0000    0.98660   0.87580   0.66510   Biso      1.000     C          0.097066  
         C29       1.0000    0.45740   0.07460   0.72660   Biso      1.000     C          0.142837  
         C30       1.0000    0.30700   0.80990   0.96820   Biso      1.000     C          0.5996    
         C31       1.0000    0.29350   0.86410   0.23160   Biso      1.000     C          -0.386914           
         C32       1.0000    0.34400   0.02500   0.71500   Biso      1.000     C          -0.133602           
         C33       1.0000    0.03980   0.96560   0.76770   Biso      1.000     C          0.13932   
         C34       1.0000    0.16740   0.84290   0.08880   Biso      1.000     C          0.06863   
         C35       1.0000    0.35800   0.82410   0.37300   Biso      1.000     C          0.659935  
         C36       1.0000    0.78100   0.68030   0.60420   Biso      1.000     C          -0.380569           
         C37       1.0000    0.72960   0.91520   0.81780   Biso      1.000     C          0.082104  
         C38       1.0000    0.38470   0.11790   0.82020   Biso      1.000     C          -0.197681           
         C39       1.0000    0.66430   0.69640   0.76630   Biso      1.000     C          0.040128  
         C40       1.0000    0.50620   0.16270   0.83450   Biso      1.000     C          0.10478900000000001           
         H1        1.0000    0.77410   0.99240   0.88210   Biso      1.000     H          0.12162   
         H2        1.0000    0.11060   0.30780   0.92750   Biso      1.000     H          0.31741199999999997           
         H3        1.0000    0.89310   0.37340   0.97610   Biso      1.000     H          0.065058  
         H4        1.0000    0.05560   0.32170   0.74840   Biso      1.000     H          0.309825  
         H5        1.0000    0.57810   0.37970   0.81620   Biso      1.000     H          0.14565899999999998           
         H6        1.0000    0.59960   0.91260   0.87440   Biso      1.000     H          0.091364  
         H7        1.0000    0.71130   0.05420   0.58290   Biso      1.000     H          0.125723  
         H8        1.0000    0.30100   0.15320   0.45720   Biso      1.000     H          0.13228099999999998           
         H9        1.0000    0.03760   0.84620   0.60290   Biso      1.000     H          0.10280399999999999           
         H10       1.0000    0.08410   0.16400   0.36350   Biso      1.000     H          0.141298  
         H11       1.0000    0.40350   0.99850   0.64390   Biso      1.000     H          0.110125  
         H12       1.0000    0.44510   0.19360   0.88260   Biso      1.000     H          0.101633  
         H13       1.0000    0.39770   0.16460   0.17700   Biso      1.000     H          0.077088  
         H14       1.0000    0.63160   0.22790   0.26770   Biso      1.000     H          0.317207  
         H15       1.0000    0.52540   0.21910   0.43500   Biso      1.000     H          0.310265  
         H16       1.0000    0.78580   0.39330   0.71460   Biso      1.000     H          0.132597  
         H17       1.0000    0.25240   0.11650   0.87350   Biso      1.000     H          0.126817  
         H18       1.0000    0.92230   0.12400   0.66910   Biso      1.000     H          0.09331   
         H19       1.0000    0.25030   0.91950   0.63920   Biso      1.000     H          0.127227  
         H20       1.0000    0.87980   0.53700   0.12740   Biso      1.000     H          0.10773599999999998           
         H21       1.0000    0.12020   0.03700   0.87260   Biso      1.000     H          0.107741  
         H22       1.0000    0.59650   0.49850   0.35610   Biso      1.000     H          0.110125  
         H23       1.0000    0.28870   0.55420   0.41710   Biso      1.000     H          0.125718  
         H24       1.0000    0.74760   0.61650   0.12650   Biso      1.000     H          0.12681800000000001           
         H25       1.0000    0.55490   0.69360   0.11740   Biso      1.000     H          0.101631  
         H26       1.0000    0.36840   0.72790   0.73230   Biso      1.000     H          0.317209  
         H27       1.0000    0.69900   0.65320   0.54280   Biso      1.000     H          0.13228499999999999           
         H28       1.0000    0.88940   0.80780   0.07250   Biso      1.000     H          0.317409  
         H29       1.0000    0.96240   0.34620   0.39710   Biso      1.000     H          0.102801  
         H30       1.0000    0.07770   0.62400   0.33090   Biso      1.000     H          0.09331   
         H31       1.0000    0.91590   0.66400   0.63650   Biso      1.000     H          0.141302  
         H32       1.0000    0.42190   0.87970   0.18380   Biso      1.000     H          0.145655  
         H33       1.0000    0.74970   0.41950   0.36080   Biso      1.000     H          0.127227  
         H34       1.0000    0.22590   0.49240   0.11790   Biso      1.000     H          0.12161500000000001           
         H35       1.0000    0.40040   0.41260   0.12560   Biso      1.000     H          0.091363  
         H36       1.0000    0.60230   0.66460   0.82300   Biso      1.000     H          0.077092  
         H37       1.0000    0.21420   0.89330   0.28540   Biso      1.000     H          0.13259400000000002           
         H38       1.0000    0.47460   0.71910   0.56500   Biso      1.000     H          0.310268  
         H39       1.0000    0.10690   0.87340   0.02390   Biso      1.000     H          0.065054  
         H40       1.0000    0.94440   0.82170   0.25160   Biso      1.000     H          0.30982   
         N1        1.0000    0.79570   0.87320   0.73140   Biso      1.000     N          -0.195536           
         N2        1.0000    0.70350   0.16550   0.78550   Biso      1.000     N          -0.213469           
         N3        1.0000    0.50700   0.22980   0.32400   Biso      1.000     N          -0.647572           
         N4        1.0000    0.20430   0.37320   0.26860   Biso      1.000     N          -0.195536           
         N5        1.0000    0.99580   0.80890   0.15070   Biso      1.000     N          -0.649042           
         N6        1.0000    0.00420   0.30890   0.84930   Biso      1.000     N          -0.649059           
         N7        1.0000    0.29650   0.66550   0.21450   Biso      1.000     N          -0.21347  
         N8        1.0000    0.49300   0.72980   0.67600   Biso      1.000     N          -0.64758  
         Ni1       1.0000    0.61920   0.80550   0.68810   Biso      1.000     Ni          0.8029    
         Ni2       1.0000    0.11910   0.73530   0.18400   Biso      1.000     Ni          0.826573  
         Ni3       1.0000    0.38080   0.30550   0.31190   Biso      1.000     Ni          0.802898  
         Ni4       1.0000    0.88090   0.23530   0.81600   Biso      1.000     Ni          0.826565  
         O1        1.0000    0.54500   0.34360   0.50530   Biso      1.000     O          -0.5651649999999999           
         O2        1.0000    0.31890   0.77530   0.35510   Biso      1.000     O          -0.562609           
         O3        1.0000    0.45500   0.84360   0.49470   Biso      1.000     O          -0.565172           
         O4        1.0000    0.69840   0.26180   0.00680   Biso      1.000     O          -0.525694           
         O5        1.0000    0.58150   0.33490   0.13270   Biso      1.000     O          -0.5535770000000001           
         O6        1.0000    0.08280   0.20790   0.64050   Biso      1.000     O          -0.557462           
         O7        1.0000    0.18100   0.27860   0.49950   Biso      1.000     O          -0.535756           
         O8        1.0000    0.80700   0.77040   0.87470   Biso      1.000     O          -0.55125  
         O9        1.0000    0.06460   0.19640   0.01340   Biso      1.000     O          -0.5334180000000001           
         O10       1.0000    0.30160   0.76180   0.99320   Biso      1.000     O          -0.525692           
         O11       1.0000    0.41850   0.83490   0.86730   Biso      1.000     O          -0.5535800000000001           
         O12       1.0000    0.91720   0.70790   0.35950   Biso      1.000     O          -0.557457           
         O13       1.0000    0.81900   0.77860   0.50050   Biso      1.000     O          -0.53576  
         O14       1.0000    0.19300   0.27040   0.12530   Biso      1.000     O          -0.551243           
         O15       1.0000    0.93540   0.69640   0.98660   Biso      1.000     O          -0.533413           
         O16       1.0000    0.68110   0.27530   0.64490   Biso      1.000     O          -0.562615 