
##########################################################################
#               Crystallographic Information Format file
#               Produced by PyCifRW module
#
#  This is a CIF file.  CIF has been adopted by the International
#  Union of Crystallography as the standard for data archiving and
#  transmission.
#
#  For information on this file format, follow the CIF links at
#  http://www.iucr.org
##########################################################################

data_image0

_cell_length_a                          8.902
_cell_length_b                          11.887
_cell_length_c                          14.757
_cell_angle_alpha                       90
_cell_angle_beta                        90
_cell_angle_gamma                       90
_symmetry_space_group_name_H-M          'P 1'
_symmetry_int_tables_number             1
loop_
  _symmetry_equiv_pos_as_xyz
         'x, y, z' 
loop_
  _atom_site_label
  _atom_site_occupancy
  _atom_site_fract_x
  _atom_site_fract_y
  _atom_site_fract_z
  _atom_site_thermal_displace_type
  _atom_site_B_iso_or_equiv
  _atom_site_type_symbol
  _atom_site_charge
         C1        1.0000    0.45790   0.48010   0.95697   Biso      1.000     C          0.6053970000000001  
         C2        1.0000    0.04210   0.51990   0.45697   Biso      1.000     C          0.6053970000000001  
         C3        1.0000    0.10130   0.47060   0.88180   Biso      1.000     C          -0.170265           
         C4        1.0000    0.60130   0.02940   0.11820   Biso      1.000     C          -0.170265           
         C5        1.0000    0.12020   0.53930   0.80870   Biso      1.000     C          0.10058500000000001           
         C6        1.0000    0.58590   0.18390   0.21860   Biso      1.000     C          -0.14891400000000002          
         C7        1.0000    0.08590   0.31610   0.78140   Biso      1.000     C          -0.14891400000000002          
         C8        1.0000    0.54210   0.98010   0.54303   Biso      1.000     C          0.6053970000000001  
         C9        1.0000    0.47280   0.87100   0.52307   Biso      1.000     C          -0.052969           
         C10       1.0000    0.97280   0.62900   0.47693   Biso      1.000     C          -0.052969           
         C11       1.0000    0.91310   0.85470   0.63084   Biso      1.000     C          0.088357  
         C12       1.0000    0.87980   0.03930   0.69130   Biso      1.000     C          0.100576  
         C13       1.0000    0.42300   0.72370   0.44655   Biso      1.000     C          0.30507199999999995           
         C14       1.0000    0.52720   0.37100   0.97693   Biso      1.000     C          -0.052969           
         C15       1.0000    0.08690   0.35470   0.86916   Biso      1.000     C          0.088363  
         C16       1.0000    0.12270   0.19660   0.07313   Biso      1.000     C          0.008509000000000001          
         C17       1.0000    0.91410   0.81610   0.71860   Biso      1.000     C          -0.14890799999999998          
         C18       1.0000    0.81510   0.68350   0.33402   Biso      1.000     C          0.5607949999999999  
         C19       1.0000    0.57700   0.22370   0.05345   Biso      1.000     C          0.30507199999999995           
         C20       1.0000    0.92300   0.77630   0.55345   Biso      1.000     C          0.30507199999999995           
         C21       1.0000    0.41410   0.68390   0.28140   Biso      1.000     C          -0.14891400000000002          
         C22       1.0000    0.18490   0.18350   0.16598   Biso      1.000     C          0.560794  
         C23       1.0000    0.10410   0.39050   0.71010   Biso      1.000     C          0.090449  
         C24       1.0000    0.68490   0.31650   0.83402   Biso      1.000     C          0.560794  
         C25       1.0000    0.37980   0.46070   0.30870   Biso      1.000     C          0.100577  
         C26       1.0000    0.89870   0.97060   0.61820   Biso      1.000     C          -0.170255           
         C27       1.0000    0.02720   0.12900   0.02307   Biso      1.000     C          -0.05297  
         C28       1.0000    0.31510   0.81650   0.66598   Biso      1.000     C          0.560794  
         C29       1.0000    0.39870   0.52940   0.38180   Biso      1.000     C          -0.170256           
         C30       1.0000    0.07700   0.27630   0.94655   Biso      1.000     C          0.30507199999999995           
         C31       1.0000    0.62270   0.30340   0.92687   Biso      1.000     C          0.008508  
         C32       1.0000    0.39590   0.60950   0.21010   Biso      1.000     C          0.09045   
         C33       1.0000    0.37730   0.80340   0.57313   Biso      1.000     C          0.008508  
         C34       1.0000    0.41310   0.64530   0.36916   Biso      1.000     C          0.088361  
         C35       1.0000    0.87730   0.69660   0.42687   Biso      1.000     C          0.008509000000000001          
         C36       1.0000    0.60410   0.10950   0.28990   Biso      1.000     C          0.09045   
         C37       1.0000    0.89590   0.89050   0.78990   Biso      1.000     C          0.090449  
         C38       1.0000    0.62020   0.96070   0.19130   Biso      1.000     C          0.100586  
         C39       1.0000    0.95790   0.01990   0.04303   Biso      1.000     C          0.6053970000000001  
         C40       1.0000    0.58690   0.14530   0.13084   Biso      1.000     C          0.088362  
         H1        1.0000    0.36790   0.38410   0.31890   Biso      1.000     H          0.107027  
         H2        1.0000    0.90190   0.00080   0.56010   Biso      1.000     H          0.135171  
         H3        1.0000    0.59810   0.99920   0.06010   Biso      1.000     H          0.13517200000000001           
         H4        1.0000    0.39640   0.63780   0.15130   Biso      1.000     H          0.10516800000000001           
         H5        1.0000    0.52420   0.48500   0.84560   Biso      1.000     H          0.41245200000000004           
         H6        1.0000    0.57300   0.26030   0.23010   Biso      1.000     H          0.13426400000000002           
         H7        1.0000    0.40190   0.49920   0.43990   Biso      1.000     H          0.135171  
         H8        1.0000    0.02420   0.01500   0.15440   Biso      1.000     H          0.412451  
         H9        1.0000    0.92700   0.73970   0.73010   Biso      1.000     H          0.13426400000000002           
         H10       1.0000    0.86790   0.11590   0.68110   Biso      1.000     H          0.107028  
         H11       1.0000    0.63210   0.88410   0.18110   Biso      1.000     H          0.107027  
         H12       1.0000    0.97580   0.51500   0.34560   Biso      1.000     H          0.412451  
         H13       1.0000    0.47580   0.98500   0.65440   Biso      1.000     H          0.41245200000000004           
         H14       1.0000    0.89640   0.86220   0.84870   Biso      1.000     H          0.10516800000000001           
         H15       1.0000    0.13210   0.61590   0.81890   Biso      1.000     H          0.107027  
         H16       1.0000    0.42700   0.76030   0.26990   Biso      1.000     H          0.13426400000000002           
         H17       1.0000    0.60360   0.13780   0.34870   Biso      1.000     H          0.10516800000000001           
         H18       1.0000    0.10360   0.36220   0.65130   Biso      1.000     H          0.10516800000000001           
         H19       1.0000    0.07300   0.23970   0.76990   Biso      1.000     H          0.13426400000000002           
         H20       1.0000    0.09810   0.50080   0.93990   Biso      1.000     H          0.13517200000000001           
         N1        1.0000    0.12260   0.50210   0.72209   Biso      1.000     N          -0.226098           
         N2        1.0000    0.87740   0.00210   0.77791   Biso      1.000     N          -0.226097           
         N3        1.0000    0.15650   0.29100   0.02375   Biso      1.000     N          -0.371062           
         N4        1.0000    0.62260   0.99790   0.27791   Biso      1.000     N          -0.22609899999999997          
         N5        1.0000    0.34350   0.70900   0.52375   Biso      1.000     N          -0.371062           
         N6        1.0000    0.49950   0.32020   0.05729   Biso      1.000     N          -0.35727800000000004          
         N7        1.0000    0.65650   0.20900   0.97625   Biso      1.000     N          -0.37106100000000003          
         N8        1.0000    0.37740   0.49790   0.22209   Biso      1.000     N          -0.226098           
         N9        1.0000    0.00050   0.67980   0.55729   Biso      1.000     N          -0.35727800000000004          
         N10       1.0000    0.50050   0.82020   0.44271   Biso      1.000     N          -0.35727800000000004          
         N11       1.0000    0.84350   0.79100   0.47625   Biso      1.000     N          -0.371062           
         N12       1.0000    0.99950   0.17980   0.94271   Biso      1.000     N          -0.35727800000000004          
         O1        1.0000    0.99220   0.96908   0.11771   Biso      1.000     O          -0.480584           
         O2        1.0000    0.25350   0.26376   0.19934   Biso      1.000     O          -0.530327           
         O3        1.0000    0.83830   0.59050   0.29418   Biso      1.000     O          -0.582335           
         O4        1.0000    0.13360   0.48051   0.51193   Biso      1.000     O          -0.491512           
         O5        1.0000    0.16170   0.09050   0.20582   Biso      1.000     O          -0.582335           
         O6        1.0000    0.74650   0.76376   0.30066   Biso      1.000     O          -0.530327           
         O7        1.0000    0.75350   0.23624   0.80066   Biso      1.000     O          -0.5303260000000001           
         O8        1.0000    0.00780   0.46908   0.38229   Biso      1.000     O          -0.480584           
         O9        1.0000    0.63360   0.01949   0.48807   Biso      1.000     O          -0.49151300000000003          
         O10       1.0000    0.36640   0.51949   0.01193   Biso      1.000     O          -0.49151300000000003          
         O11       1.0000    0.50780   0.03092   0.61771   Biso      1.000     O          -0.480584           
         O12       1.0000    0.33830   0.90950   0.70582   Biso      1.000     O          -0.582335           
         O13       1.0000    0.24650   0.73624   0.69934   Biso      1.000     O          -0.5303260000000001           
         O14       1.0000    0.49220   0.53092   0.88229   Biso      1.000     O          -0.480584           
         O15       1.0000    0.86640   0.98051   0.98807   Biso      1.000     O          -0.491512           
         O16       1.0000    0.66170   0.40950   0.79418   Biso      1.000     O          -0.582335           
         Zn1       1.0000    0.79642   0.10087   0.88744   Biso      1.000     Zn          0.758091  
         Zn2       1.0000    0.70358   0.89913   0.38744   Biso      1.000     Zn          0.758092  
         Zn3       1.0000    0.29642   0.39913   0.11256   Biso      1.000     Zn          0.758092  
         Zn4       1.0000    0.20358   0.60087   0.61256   Biso      1.000     Zn          0.758091 