
##########################################################################
#               Crystallographic Information Format file
#               Produced by PyCifRW module
#
#  This is a CIF file.  CIF has been adopted by the International
#  Union of Crystallography as the standard for data archiving and
#  transmission.
#
#  For information on this file format, follow the CIF links at
#  http://www.iucr.org
##########################################################################

data_image0

_cell_length_a                          19.4253
_cell_length_b                          19.4253
_cell_length_c                          21.705
_cell_angle_alpha                       64.1789
_cell_angle_beta                        64.1789
_cell_angle_gamma                       60.6199
_symmetry_space_group_name_H-M          'P 1'
_symmetry_int_tables_number             1
loop_
  _symmetry_equiv_pos_as_xyz
         'x, y, z' 
loop_
  _atom_site_label
  _atom_site_occupancy
  _atom_site_fract_x
  _atom_site_fract_y
  _atom_site_fract_z
  _atom_site_thermal_displace_type
  _atom_site_B_iso_or_equiv
  _atom_site_type_symbol
  _atom_site_charge
         C1        1.0000    0.03528   0.46084   0.61320   Biso      1.000     C          -0.153255           
         C2        1.0000    0.85589   0.02421   0.18613   Biso      1.000     C          -0.012484           
         C3        1.0000    0.82911   0.95811   0.22219   Biso      1.000     C          -0.101258           
         C4        1.0000    0.82444   0.09182   0.21880   Biso      1.000     C          0.62552   
         C5        1.0000    0.83420   0.64342   0.71434   Biso      1.000     C          0.631792  
         C6        1.0000    0.90439   0.57751   0.68042   Biso      1.000     C          -0.01925  
         C7        1.0000    0.90856   0.57998   0.61420   Biso      1.000     C          -0.155804           
         C8        1.0000    0.90827   0.03007   0.11799   Biso      1.000     C          -0.150691           
         C9        1.0000    0.96438   0.51684   0.71381   Biso      1.000     C          -0.104851           
         C10       1.0000    0.03173   0.45877   0.67887   Biso      1.000     C          -0.013179           
         C11       1.0000    0.09923   0.39463   0.71195   Biso      1.000     C          0.627673  
         C12       1.0000    0.60969   0.70851   0.79876   Biso      1.000     C          0.62545   
         C13       1.0000    0.54357   0.67413   0.82951   Biso      1.000     C          -0.017203           
         C14       1.0000    0.54349   0.60929   0.89230   Biso      1.000     C          -0.154171           
         C15       1.0000    0.48005   0.57985   0.92150   Biso      1.000     C          0.166645  
         C16       1.0000    0.97392   0.52088   0.58090   Biso      1.000     C          0.168813  
         C17       1.0000    0.41760   0.61420   0.88980   Biso      1.000     C          -0.156015           
         C18       1.0000    0.93575   0.97015   0.08500   Biso      1.000     C          0.168266  
         C19       1.0000    0.85321   0.89919   0.18949   Biso      1.000     C          -0.018502           
         C20       1.0000    0.57998   0.90856   0.11420   Biso      1.000     C          -0.155807           
         C21       1.0000    0.51684   0.96438   0.21381   Biso      1.000     C          -0.104854           
         C22       1.0000    0.52088   0.97392   0.08090   Biso      1.000     C          0.168812  
         C23       1.0000    0.46084   0.03528   0.11320   Biso      1.000     C          -0.153255           
         C24       1.0000    0.45877   0.03173   0.17887   Biso      1.000     C          -0.013178           
         C25       1.0000    0.39463   0.09923   0.21195   Biso      1.000     C          0.627673  
         C26       1.0000    0.90872   0.90512   0.12080   Biso      1.000     C          -0.157531           
         C27       1.0000    0.70851   0.60969   0.29876   Biso      1.000     C          0.62545   
         C28       1.0000    0.60929   0.54349   0.39230   Biso      1.000     C          -0.154168           
         C29       1.0000    0.57985   0.48005   0.42150   Biso      1.000     C          0.166636  
         C30       1.0000    0.61420   0.41760   0.38980   Biso      1.000     C          -0.156018           
         C31       1.0000    0.67812   0.41824   0.32749   Biso      1.000     C          -0.020259           
         C32       1.0000    0.71700   0.34932   0.29437   Biso      1.000     C          0.630537  
         C33       1.0000    0.82260   0.83078   0.22378   Biso      1.000     C          0.627338  
         C34       1.0000    0.67413   0.54357   0.32951   Biso      1.000     C          -0.017204           
         C35       1.0000    0.57751   0.90439   0.18042   Biso      1.000     C          -0.019244           
         C36       1.0000    0.41824   0.67812   0.82749   Biso      1.000     C          -0.02026  
         C37       1.0000    0.34932   0.71700   0.79437   Biso      1.000     C          0.630537  
         C38       1.0000    0.39071   0.45651   0.60770   Biso      1.000     C          -0.154171           
         C39       1.0000    0.42015   0.51995   0.57850   Biso      1.000     C          0.166645  
         C40       1.0000    0.38580   0.58240   0.61020   Biso      1.000     C          -0.156015           
         C41       1.0000    0.32188   0.58176   0.67251   Biso      1.000     C          -0.02026  
         C42       1.0000    0.29299   0.51751   0.70436   Biso      1.000     C          -0.103134           
         C43       1.0000    0.28300   0.65068   0.70563   Biso      1.000     C          0.630537  
         C44       1.0000    0.32587   0.45643   0.67049   Biso      1.000     C          -0.017203           
         C45       1.0000    0.17740   0.16922   0.77622   Biso      1.000     C          0.627338  
         C46       1.0000    0.09128   0.09488   0.87920   Biso      1.000     C          -0.157528           
         C47       1.0000    0.06425   0.02985   0.91500   Biso      1.000     C          0.168276  
         C48       1.0000    0.09173   0.96993   0.88201   Biso      1.000     C          -0.150695           
         C49       1.0000    0.14411   0.97579   0.81387   Biso      1.000     C          -0.012483           
         C50       1.0000    0.17089   0.04189   0.77781   Biso      1.000     C          -0.101258           
         C51       1.0000    0.17556   0.90818   0.78120   Biso      1.000     C          0.625521  
         C52       1.0000    0.14679   0.10081   0.81051   Biso      1.000     C          -0.018503           
         C53       1.0000    0.48249   0.70701   0.79564   Biso      1.000     C          -0.103134           
         C54       1.0000    0.29149   0.39031   0.70124   Biso      1.000     C          0.62545   
         C55       1.0000    0.54123   0.96827   0.82113   Biso      1.000     C          -0.013181           
         C56       1.0000    0.83078   0.82260   0.72378   Biso      1.000     C          0.627338  
         C57       1.0000    0.89919   0.85321   0.68949   Biso      1.000     C          -0.018503           
         C58       1.0000    0.90512   0.90872   0.62080   Biso      1.000     C          -0.157532           
         C59       1.0000    0.97015   0.93575   0.58500   Biso      1.000     C          0.168267  
         C60       1.0000    0.03007   0.90827   0.61799   Biso      1.000     C          -0.150692           
         C61       1.0000    0.02421   0.85589   0.68613   Biso      1.000     C          -0.012483           
         C62       1.0000    0.60537   0.90077   0.78805   Biso      1.000     C          0.627673  
         C63       1.0000    0.95811   0.82911   0.72219   Biso      1.000     C          -0.101257           
         C64       1.0000    0.35658   0.16580   0.78566   Biso      1.000     C          0.631791  
         C65       1.0000    0.42249   0.09561   0.81958   Biso      1.000     C          -0.019251           
         C66       1.0000    0.42002   0.09144   0.88580   Biso      1.000     C          -0.155801           
         C67       1.0000    0.48316   0.03562   0.78619   Biso      1.000     C          -0.104851           
         C68       1.0000    0.47912   0.02608   0.91910   Biso      1.000     C          0.16882   
         C69       1.0000    0.53916   0.96472   0.88680   Biso      1.000     C          -0.153254           
         C70       1.0000    0.09182   0.82444   0.71880   Biso      1.000     C          0.62552   
         C71       1.0000    0.64342   0.83420   0.21434   Biso      1.000     C          0.631791  
         C72       1.0000    0.70701   0.48249   0.29564   Biso      1.000     C          -0.103134           
         C73       1.0000    0.04189   0.17089   0.27781   Biso      1.000     C          -0.101258           
         C74       1.0000    0.90818   0.17556   0.28120   Biso      1.000     C          0.625521  
         C75       1.0000    0.16580   0.35658   0.28566   Biso      1.000     C          0.631791  
         C76       1.0000    0.09561   0.42249   0.31958   Biso      1.000     C          -0.019251           
         C77       1.0000    0.09144   0.42002   0.38580   Biso      1.000     C          -0.155801           
         C78       1.0000    0.02608   0.47912   0.41910   Biso      1.000     C          0.16882   
         C79       1.0000    0.96472   0.53916   0.38680   Biso      1.000     C          -0.153257           
         C80       1.0000    0.96827   0.54123   0.32113   Biso      1.000     C          -0.013178           
         C81       1.0000    0.90077   0.60537   0.28805   Biso      1.000     C          0.627673  
         C82       1.0000    0.39031   0.29149   0.20124   Biso      1.000     C          0.62545   
         C83       1.0000    0.45643   0.32587   0.17049   Biso      1.000     C          -0.017204           
         C84       1.0000    0.45651   0.39071   0.10770   Biso      1.000     C          -0.154168           
         C85       1.0000    0.03562   0.48316   0.28619   Biso      1.000     C          -0.104851           
         C86       1.0000    0.58240   0.38580   0.11020   Biso      1.000     C          -0.156019           
         C87       1.0000    0.51995   0.42015   0.07850   Biso      1.000     C          0.166637  
         C88       1.0000    0.96993   0.09173   0.38201   Biso      1.000     C          -0.150695           
         C89       1.0000    0.02985   0.06425   0.41500   Biso      1.000     C          0.168277  
         C90       1.0000    0.97579   0.14411   0.31387   Biso      1.000     C          -0.012483           
         C91       1.0000    0.10081   0.14679   0.31051   Biso      1.000     C          -0.018503           
         C92       1.0000    0.09488   0.09128   0.37920   Biso      1.000     C          -0.157529           
         C93       1.0000    0.65068   0.28300   0.20563   Biso      1.000     C          0.630537  
         C94       1.0000    0.51751   0.29299   0.20436   Biso      1.000     C          -0.103134           
         C95       1.0000    0.58176   0.32188   0.17251   Biso      1.000     C          -0.020259           
         C96       1.0000    0.16922   0.17740   0.27622   Biso      1.000     C          0.627338  
         H1        1.0000    0.92800   0.86380   0.09860   Biso      1.000     H          0.12952   
         H2        1.0000    0.74860   0.48480   0.25130   Biso      1.000     H          0.132274  
         H3        1.0000    0.59390   0.37430   0.41090   Biso      1.000     H          0.132756  
         H4        1.0000    0.58570   0.58590   0.41450   Biso      1.000     H          0.127499  
         H5        1.0000    0.92590   0.07530   0.09330   Biso      1.000     H          0.122008  
         H6        1.0000    0.42100   0.07980   0.09010   Biso      1.000     H          0.124368  
         H7        1.0000    0.62170   0.86710   0.09150   Biso      1.000     H          0.132809  
         H8        1.0000    0.62570   0.40610   0.08910   Biso      1.000     H          0.132756  
         H9        1.0000    0.92470   0.07410   0.40670   Biso      1.000     H          0.122006  
         H10       1.0000    0.13620   0.07200   0.40140   Biso      1.000     H          0.129522  
         H11       1.0000    0.51520   0.25140   0.24870   Biso      1.000     H          0.132274  
         H12       1.0000    0.41410   0.41430   0.08550   Biso      1.000     H          0.127499  
         H13       1.0000    0.92020   0.57900   0.40990   Biso      1.000     H          0.124366  
         H14       1.0000    0.03970   0.48570   0.24010   Biso      1.000     H          0.131406  
         H15       1.0000    0.79400   0.95340   0.26970   Biso      1.000     H          0.128627  
         H16       1.0000    0.13290   0.37830   0.40850   Biso      1.000     H          0.13281   
         H17       1.0000    0.04660   0.20600   0.23030   Biso      1.000     H          0.128627  
         H18       1.0000    0.86710   0.62170   0.59150   Biso      1.000     H          0.132809  
         H19       1.0000    0.51430   0.96030   0.25990   Biso      1.000     H          0.131406  
         H20       1.0000    0.07980   0.42100   0.59010   Biso      1.000     H          0.124368  
         H21       1.0000    0.20600   0.04660   0.73030   Biso      1.000     H          0.128627  
         H22       1.0000    0.07410   0.92470   0.90670   Biso      1.000     H          0.122006  
         H23       1.0000    0.25140   0.51520   0.74870   Biso      1.000     H          0.132274  
         H24       1.0000    0.40610   0.62570   0.58910   Biso      1.000     H          0.132758  
         H25       1.0000    0.41430   0.41410   0.58550   Biso      1.000     H          0.127497  
         H26       1.0000    0.57900   0.92020   0.90990   Biso      1.000     H          0.124366  
         H27       1.0000    0.48570   0.03970   0.74010   Biso      1.000     H          0.131406  
         H28       1.0000    0.07200   0.13620   0.90140   Biso      1.000     H          0.129522  
         H29       1.0000    0.95340   0.79400   0.76970   Biso      1.000     H          0.128627  
         H30       1.0000    0.37830   0.13290   0.90850   Biso      1.000     H          0.13281   
         H31       1.0000    0.58590   0.58570   0.91450   Biso      1.000     H          0.127497  
         H32       1.0000    0.37430   0.59390   0.91090   Biso      1.000     H          0.132758  
         H33       1.0000    0.96030   0.51430   0.75990   Biso      1.000     H          0.131406  
         H34       1.0000    0.86380   0.92800   0.59860   Biso      1.000     H          0.12952   
         H35       1.0000    0.07530   0.92590   0.59330   Biso      1.000     H          0.122008  
         H36       1.0000    0.48480   0.74860   0.75130   Biso      1.000     H          0.132274  
         N1        1.0000    0.02841   0.47321   0.48630   Biso      1.000     N          -0.125147           
         N2        1.0000    0.48697   0.52597   0.51440   Biso      1.000     N          -0.119262           
         N3        1.0000    0.47321   0.02841   0.98630   Biso      1.000     N          -0.125147           
         N4        1.0000    0.47403   0.51303   0.98560   Biso      1.000     N          -0.119262           
         N5        1.0000    0.00951   0.02991   0.98479   Biso      1.000     N          -0.117528           
         N6        1.0000    0.97159   0.52679   0.51370   Biso      1.000     N          -0.125057           
         N7        1.0000    0.99049   0.97009   0.01521   Biso      1.000     N          -0.117418           
         N8        1.0000    0.51303   0.47403   0.48560   Biso      1.000     N          -0.119158           
         N9        1.0000    0.52679   0.97159   0.01370   Biso      1.000     N          -0.125056           
         N10       1.0000    0.02991   0.00951   0.48479   Biso      1.000     N          -0.117528           
         N11       1.0000    0.52597   0.48697   0.01440   Biso      1.000     N          -0.119158           
         N12       1.0000    0.97009   0.99049   0.51521   Biso      1.000     N          -0.117418           
         O1        1.0000    0.84057   0.15533   0.17866   Biso      1.000     O          -0.592079           
         O2        1.0000    0.65625   0.68299   0.83641   Biso      1.000     O          -0.571145           
         O3        1.0000    0.61231   0.76121   0.73763   Biso      1.000     O          -0.56736  
         O4        1.0000    0.16249   0.35423   0.67221   Biso      1.000     O          -0.598439           
         O5        1.0000    0.08917   0.38733   0.77558   Biso      1.000     O          -0.553244           
         O6        1.0000    0.82992   0.63858   0.77539   Biso      1.000     O          -0.56582  
         O7        1.0000    0.78616   0.69962   0.67775   Biso      1.000     O          -0.589551           
         O8        1.0000    0.78331   0.08025   0.28379   Biso      1.000     O          -0.553717           
         O9        1.0000    0.77274   0.35364   0.23592   Biso      1.000     O          -0.567034           
         O10       1.0000    0.69053   0.29171   0.32930   Biso      1.000     O          -0.579613           
         O11       1.0000    0.77880   0.82214   0.28852   Biso      1.000     O          -0.559836           
         O12       1.0000    0.78906   0.83910   0.68490   Biso      1.000     O          -0.591084           
         O13       1.0000    0.82214   0.77880   0.78852   Biso      1.000     O          -0.559836           
         O14       1.0000    0.22726   0.64636   0.76408   Biso      1.000     O          -0.567034           
         O15       1.0000    0.35364   0.77274   0.73592   Biso      1.000     O          -0.567034           
         O16       1.0000    0.30947   0.70829   0.67070   Biso      1.000     O          -0.579613           
         O17       1.0000    0.22120   0.17786   0.71148   Biso      1.000     O          -0.559836           
         O18       1.0000    0.16090   0.21094   0.81510   Biso      1.000     O          -0.591084           
         O19       1.0000    0.31701   0.34375   0.66359   Biso      1.000     O          -0.571145           
         O20       1.0000    0.23879   0.38769   0.76237   Biso      1.000     O          -0.56736  
         O21       1.0000    0.64577   0.83751   0.82779   Biso      1.000     O          -0.598439           
         O22       1.0000    0.61267   0.91083   0.72442   Biso      1.000     O          -0.553244           
         O23       1.0000    0.36142   0.17008   0.72461   Biso      1.000     O          -0.56582  
         O24       1.0000    0.30038   0.21384   0.82225   Biso      1.000     O          -0.589552           
         O25       1.0000    0.15533   0.84057   0.67866   Biso      1.000     O          -0.592079           
         O26       1.0000    0.83910   0.78906   0.18490   Biso      1.000     O          -0.591084           
         O27       1.0000    0.08025   0.78331   0.78379   Biso      1.000     O          -0.553717           
         O28       1.0000    0.29171   0.69053   0.82930   Biso      1.000     O          -0.579613           
         O29       1.0000    0.68299   0.65625   0.33641   Biso      1.000     O          -0.571145           
         O30       1.0000    0.15943   0.84467   0.82134   Biso      1.000     O          -0.592078           
         O31       1.0000    0.35423   0.16249   0.17221   Biso      1.000     O          -0.598439           
         O32       1.0000    0.21669   0.91975   0.71621   Biso      1.000     O          -0.553717           
         O33       1.0000    0.21384   0.30038   0.32225   Biso      1.000     O          -0.589552           
         O34       1.0000    0.76121   0.61231   0.23763   Biso      1.000     O          -0.56736  
         O35       1.0000    0.91083   0.61267   0.22442   Biso      1.000     O          -0.553244           
         O36       1.0000    0.83751   0.64577   0.32779   Biso      1.000     O          -0.598439           
         O37       1.0000    0.38769   0.23879   0.26237   Biso      1.000     O          -0.56736  
         O38       1.0000    0.34375   0.31701   0.16359   Biso      1.000     O          -0.571145           
         O39       1.0000    0.21094   0.16090   0.31510   Biso      1.000     O          -0.591084           
         O40       1.0000    0.17008   0.36142   0.22461   Biso      1.000     O          -0.56582  
         O41       1.0000    0.70829   0.30947   0.17070   Biso      1.000     O          -0.579613           
         O42       1.0000    0.64636   0.22726   0.26408   Biso      1.000     O          -0.567034           
         O43       1.0000    0.91975   0.21669   0.21621   Biso      1.000     O          -0.553717           
         O44       1.0000    0.84467   0.15943   0.32134   Biso      1.000     O          -0.592078           
         O45       1.0000    0.69962   0.78616   0.17775   Biso      1.000     O          -0.589551           
         O46       1.0000    0.63858   0.82992   0.27539   Biso      1.000     O          -0.56582  
         O47       1.0000    0.38733   0.08917   0.27558   Biso      1.000     O          -0.553244           
         O48       1.0000    0.17786   0.22120   0.21148   Biso      1.000     O          -0.559836           
         Zn1       1.0000    0.26091   0.27532   0.17311   Biso      1.000     Zn          1.054035  
         Zn2       1.0000    0.82041   0.26986   0.18076   Biso      1.000     Zn          1.049536  
         Zn3       1.0000    0.81199   0.69796   0.18740   Biso      1.000     Zn          1.051417  
         Zn4       1.0000    0.72468   0.73909   0.32689   Biso      1.000     Zn          1.054035  
         Zn5       1.0000    0.73014   0.17959   0.31924   Biso      1.000     Zn          1.049536  
         Zn6       1.0000    0.18801   0.30204   0.81260   Biso      1.000     Zn          1.051417  
         Zn7       1.0000    0.73909   0.72468   0.82689   Biso      1.000     Zn          1.054035  
         Zn8       1.0000    0.17959   0.73014   0.81924   Biso      1.000     Zn          1.049536  
         Zn9       1.0000    0.27532   0.26091   0.67311   Biso      1.000     Zn          1.054035  
         Zn10      1.0000    0.26986   0.82041   0.68076   Biso      1.000     Zn          1.049536  
         Zn11      1.0000    0.69796   0.81199   0.68740   Biso      1.000     Zn          1.051417  
         Zn12      1.0000    0.30204   0.18801   0.31260   Biso      1.000     Zn          1.051417 