
##########################################################################
#               Crystallographic Information Format file
#               Produced by PyCifRW module
#
#  This is a CIF file.  CIF has been adopted by the International
#  Union of Crystallography as the standard for data archiving and
#  transmission.
#
#  For information on this file format, follow the CIF links at
#  http://www.iucr.org
##########################################################################

data_image0

_cell_length_a                          18.07
_cell_length_b                          18.07
_cell_length_c                          19.34
_cell_angle_alpha                       90
_cell_angle_beta                        90
_cell_angle_gamma                       120
_symmetry_space_group_name_H-M          'P 1'
_symmetry_int_tables_number             1
loop_
  _symmetry_equiv_pos_as_xyz
         'x, y, z' 
loop_
  _atom_site_label
  _atom_site_occupancy
  _atom_site_fract_x
  _atom_site_fract_y
  _atom_site_fract_z
  _atom_site_thermal_displace_type
  _atom_site_B_iso_or_equiv
  _atom_site_type_symbol
  _atom_site_charge
         C1        1.0000    0.08390   0.44410   0.06330   Biso      1.000     C          0.580278  
         C2        1.0000    0.63340   0.75020   0.34560   Biso      1.000     C          -0.18427  
         C3        1.0000    0.58290   0.72590   0.40400   Biso      1.000     C          0.010393  
         C4        1.0000    0.36020   0.91610   0.43670   Biso      1.000     C          0.579002  
         C5        1.0000    0.24980   0.88320   0.34560   Biso      1.000     C          -0.184586           
         C6        1.0000    0.27410   0.85700   0.40400   Biso      1.000     C          0.013153  
         C7        1.0000    0.91610   0.55590   0.93670   Biso      1.000     C          0.580278  
         C8        1.0000    0.88320   0.63340   0.84560   Biso      1.000     C          -0.184182           
         C9        1.0000    0.85700   0.58290   0.90400   Biso      1.000     C          0.010147  
         C10       1.0000    0.44410   0.36020   0.93670   Biso      1.000     C          0.580298  
         C11       1.0000    0.36660   0.24980   0.84560   Biso      1.000     C          -0.184286           
         C12       1.0000    0.41710   0.27410   0.90400   Biso      1.000     C          0.010381  
         C13       1.0000    0.63980   0.08390   0.93670   Biso      1.000     C          0.57901   
         C14       1.0000    0.75020   0.11680   0.84560   Biso      1.000     C          -0.18459  
         C15       1.0000    0.72590   0.14300   0.90400   Biso      1.000     C          0.013146  
         C16       1.0000    0.14300   0.41710   0.09600   Biso      1.000     C          0.010145  
         C17       1.0000    0.11680   0.36660   0.15440   Biso      1.000     C          -0.184185           
         C18       1.0000    0.72590   0.14300   0.59600   Biso      1.000     C          0.013151  
         C19       1.0000    0.75020   0.11680   0.65440   Biso      1.000     C          -0.184592           
         C20       1.0000    0.63980   0.08390   0.56330   Biso      1.000     C          0.579028  
         C21       1.0000    0.41710   0.27410   0.59600   Biso      1.000     C          0.010375  
         C22       1.0000    0.36660   0.24980   0.65440   Biso      1.000     C          -0.184268           
         C23       1.0000    0.55590   0.63980   0.43670   Biso      1.000     C          0.580286  
         C24       1.0000    0.14300   0.41710   0.40400   Biso      1.000     C          0.010151  
         C25       1.0000    0.11680   0.36660   0.34560   Biso      1.000     C          -0.184183           
         C26       1.0000    0.08390   0.44410   0.43670   Biso      1.000     C          0.580259  
         C27       1.0000    0.58290   0.72590   0.09600   Biso      1.000     C          0.010364  
         C28       1.0000    0.36020   0.91610   0.06330   Biso      1.000     C          0.579037  
         C29       1.0000    0.24980   0.88320   0.15440   Biso      1.000     C          -0.184597           
         C30       1.0000    0.27410   0.85700   0.09600   Biso      1.000     C          0.013146  
         C31       1.0000    0.63980   0.55590   0.56330   Biso      1.000     C          0.580264  
         C32       1.0000    0.75020   0.63340   0.65440   Biso      1.000     C          -0.184188           
         C33       1.0000    0.72590   0.58290   0.59600   Biso      1.000     C          0.010146  
         C34       1.0000    0.91610   0.36020   0.56330   Biso      1.000     C          0.580288  
         C35       1.0000    0.88320   0.24980   0.65440   Biso      1.000     C          -0.184272           
         C36       1.0000    0.85700   0.27410   0.59600   Biso      1.000     C          0.010375  
         C37       1.0000    0.44410   0.36020   0.56330   Biso      1.000     C          0.580294  
         C38       1.0000    0.44410   0.08390   0.56330   Biso      1.000     C          0.579031  
         C39       1.0000    0.41710   0.14300   0.59600   Biso      1.000     C          0.013153  
         C40       1.0000    0.36020   0.44410   0.06330   Biso      1.000     C          0.580277  
         C41       1.0000    0.24980   0.36660   0.15440   Biso      1.000     C          -0.184188           
         C42       1.0000    0.27410   0.41710   0.09600   Biso      1.000     C          0.010143  
         C43       1.0000    0.08390   0.63980   0.06330   Biso      1.000     C          0.580306  
         C44       1.0000    0.11680   0.75020   0.15440   Biso      1.000     C          -0.184279           
         C45       1.0000    0.14300   0.72590   0.09600   Biso      1.000     C          0.010366  
         C46       1.0000    0.55590   0.91610   0.06330   Biso      1.000     C          0.579037  
         C47       1.0000    0.63340   0.88320   0.15440   Biso      1.000     C          -0.184596           
         C48       1.0000    0.58290   0.85700   0.09600   Biso      1.000     C          0.013148  
         C49       1.0000    0.36660   0.11680   0.65440   Biso      1.000     C          -0.184586           
         C50       1.0000    0.85700   0.58290   0.59600   Biso      1.000     C          0.010149  
         C51       1.0000    0.88320   0.63340   0.65440   Biso      1.000     C          -0.184185           
         C52       1.0000    0.91610   0.55590   0.56330   Biso      1.000     C          0.580259  
         C53       1.0000    0.65920   0.82960   0.31400   Biso      1.000     C          0.15838   
         C54       1.0000    0.55820   0.77910   0.43150   Biso      1.000     C          -0.122159           
         C55       1.0000    0.17040   0.34080   0.31400   Biso      1.000     C          0.158226  
         C56       1.0000    0.22090   0.44180   0.43150   Biso      1.000     C          -0.121616           
         C57       1.0000    0.65920   0.82960   0.18600   Biso      1.000     C          0.158353  
         C58       1.0000    0.55820   0.77910   0.06850   Biso      1.000     C          -0.122154           
         C59       1.0000    0.17040   0.82960   0.18600   Biso      1.000     C          0.158352  
         C60       1.0000    0.22090   0.77910   0.06850   Biso      1.000     C          -0.122156           
         C61       1.0000    0.17040   0.34080   0.18600   Biso      1.000     C          0.15823   
         C62       1.0000    0.22090   0.44180   0.06850   Biso      1.000     C          -0.121587           
         C63       1.0000    0.22090   0.77910   0.43150   Biso      1.000     C          -0.122165           
         C64       1.0000    0.34080   0.17040   0.68600   Biso      1.000     C          0.15836   
         C65       1.0000    0.82960   0.17040   0.68600   Biso      1.000     C          0.158357  
         C66       1.0000    0.77910   0.22090   0.56850   Biso      1.000     C          -0.122164           
         C67       1.0000    0.82960   0.65920   0.68600   Biso      1.000     C          0.158227  
         C68       1.0000    0.77910   0.55820   0.56850   Biso      1.000     C          -0.121597           
         C69       1.0000    0.85695   0.14305   0.75000   Biso      1.000     C          -0.317367           
         C70       1.0000    0.28610   0.14305   0.75000   Biso      1.000     C          -0.317368           
         C71       1.0000    0.85695   0.71390   0.75000   Biso      1.000     C          -0.3175   
         C72       1.0000    0.14305   0.85695   0.25000   Biso      1.000     C          -0.317368           
         C73       1.0000    0.71390   0.85695   0.25000   Biso      1.000     C          -0.317368           
         C74       1.0000    0.14305   0.28610   0.25000   Biso      1.000     C          -0.317499           
         C75       1.0000    0.44180   0.22090   0.56850   Biso      1.000     C          -0.122158           
         C76       1.0000    0.63340   0.75020   0.15440   Biso      1.000     C          -0.184279           
         C77       1.0000    0.17040   0.82960   0.31400   Biso      1.000     C          0.158378  
         C78       1.0000    0.82960   0.65920   0.81400   Biso      1.000     C          0.158232  
         C79       1.0000    0.41710   0.14300   0.90400   Biso      1.000     C          0.013146  
         C80       1.0000    0.36660   0.11680   0.84560   Biso      1.000     C          -0.184587           
         C81       1.0000    0.44410   0.08390   0.93670   Biso      1.000     C          0.579012  
         C82       1.0000    0.85700   0.27410   0.90400   Biso      1.000     C          0.010381  
         C83       1.0000    0.88320   0.24980   0.84560   Biso      1.000     C          -0.184284           
         C84       1.0000    0.91610   0.36020   0.93670   Biso      1.000     C          0.580298  
         C85       1.0000    0.72590   0.58290   0.90400   Biso      1.000     C          0.010143  
         C86       1.0000    0.75020   0.63340   0.84560   Biso      1.000     C          -0.184183           
         C87       1.0000    0.63980   0.55590   0.93670   Biso      1.000     C          0.580279  
         C88       1.0000    0.58290   0.85700   0.40400   Biso      1.000     C          0.013168  
         C89       1.0000    0.77910   0.55820   0.93150   Biso      1.000     C          -0.121591           
         C90       1.0000    0.63340   0.88320   0.34560   Biso      1.000     C          -0.184581           
         C91       1.0000    0.14300   0.72590   0.40400   Biso      1.000     C          0.010404  
         C92       1.0000    0.11680   0.75020   0.34560   Biso      1.000     C          -0.184277           
         C93       1.0000    0.08390   0.63980   0.43670   Biso      1.000     C          0.580278  
         C94       1.0000    0.27410   0.41710   0.40400   Biso      1.000     C          0.010159  
         C95       1.0000    0.24980   0.36660   0.34560   Biso      1.000     C          -0.184184           
         C96       1.0000    0.36020   0.44410   0.43670   Biso      1.000     C          0.580263  
         C97       1.0000    0.82960   0.17040   0.81400   Biso      1.000     C          0.158373  
         C98       1.0000    0.77910   0.22090   0.93150   Biso      1.000     C          -0.12214  
         C99       1.0000    0.34080   0.17040   0.81400   Biso      1.000     C          0.158373  
         C100      1.0000    0.44180   0.22090   0.93150   Biso      1.000     C          -0.122139           
         C101      1.0000    0.55590   0.91610   0.43670   Biso      1.000     C          0.579002  
         C102      1.0000    0.55590   0.63980   0.06330   Biso      1.000     C          0.580307  
         Cu1       1.0000    0.52678   0.05356   0.05348   Biso      1.000     Cu          0.884266  
         Cu2       1.0000    0.47322   0.94644   0.94652   Biso      1.000     Cu          0.883678  
         Cu3       1.0000    0.52678   0.47322   0.44652   Biso      1.000     Cu          0.891278  
         Cu4       1.0000    0.94644   0.47322   0.44652   Biso      1.000     Cu          0.891264  
         Cu5       1.0000    0.47322   0.52678   0.94652   Biso      1.000     Cu          0.891319  
         Cu6       1.0000    0.05356   0.52678   0.94652   Biso      1.000     Cu          0.891317  
         Cu7       1.0000    0.52678   0.05356   0.44652   Biso      1.000     Cu          0.883737  
         Cu8       1.0000    0.47322   0.52678   0.55348   Biso      1.000     Cu          0.891391  
         Cu9       1.0000    0.47322   0.94644   0.55348   Biso      1.000     Cu          0.884186  
         Cu10      1.0000    0.94644   0.47322   0.05348   Biso      1.000     Cu          0.891385  
         Cu11      1.0000    0.52678   0.47322   0.05348   Biso      1.000     Cu          0.891392  
         Cu12      1.0000    0.05356   0.52678   0.55348   Biso      1.000     Cu          0.891324  
         H1        1.0000    0.71260   0.06410   0.67250   Biso      1.000     H          0.132464  
         H2        1.0000    0.35150   0.06410   0.67250   Biso      1.000     H          0.132467  
         H3        1.0000    0.06410   0.35150   0.17250   Biso      1.000     H          0.132188  
         H4        1.0000    0.64850   0.71260   0.17250   Biso      1.000     H          0.132191  
         H5        1.0000    0.28740   0.93590   0.17250   Biso      1.000     H          0.13246   
         H6        1.0000    0.71260   0.64850   0.67250   Biso      1.000     H          0.132188  
         H7        1.0000    0.93590   0.28740   0.67250   Biso      1.000     H          0.132193  
         H8        1.0000    0.28740   0.35150   0.17250   Biso      1.000     H          0.132186  
         H9        1.0000    0.93590   0.64850   0.82750   Biso      1.000     H          0.132188  
         H10       1.0000    0.64850   0.93590   0.17250   Biso      1.000     H          0.132462  
         H11       1.0000    0.06410   0.35150   0.32750   Biso      1.000     H          0.132187  
         H12       1.0000    0.64850   0.71260   0.32750   Biso      1.000     H          0.1322    
         H13       1.0000    0.28740   0.93590   0.32750   Biso      1.000     H          0.132473  
         H14       1.0000    0.35150   0.28740   0.67250   Biso      1.000     H          0.132197  
         H15       1.0000    0.35150   0.28740   0.82750   Biso      1.000     H          0.132199  
         H16       1.0000    0.71260   0.06410   0.82750   Biso      1.000     H          0.132465  
         H17       1.0000    0.91810   0.74860   0.75000   Biso      1.000     H          0.142711  
         H18       1.0000    0.06410   0.71260   0.17250   Biso      1.000     H          0.13219   
         H19       1.0000    0.93590   0.64850   0.67250   Biso      1.000     H          0.132187  
         H20       1.0000    0.83050   0.08190   0.75000   Biso      1.000     H          0.14277   
         H21       1.0000    0.93590   0.28740   0.82750   Biso      1.000     H          0.132197  
         H22       1.0000    0.35150   0.06410   0.82750   Biso      1.000     H          0.132467  
         H23       1.0000    0.25140   0.16950   0.75000   Biso      1.000     H          0.142756  
         H24       1.0000    0.16950   0.91810   0.25000   Biso      1.000     H          0.142769  
         H25       1.0000    0.74860   0.83050   0.25000   Biso      1.000     H          0.142755  
         H26       1.0000    0.16950   0.25140   0.25000   Biso      1.000     H          0.142707  
         H27       1.0000    0.74860   0.91810   0.25000   Biso      1.000     H          0.142775  
         H28       1.0000    0.08190   0.83050   0.25000   Biso      1.000     H          0.142752  
         H29       1.0000    0.83050   0.74860   0.75000   Biso      1.000     H          0.14271   
         H30       1.0000    0.25140   0.08190   0.75000   Biso      1.000     H          0.142776  
         H31       1.0000    0.91810   0.16950   0.75000   Biso      1.000     H          0.142752  
         H32       1.0000    0.76160   0.52320   0.52960   Biso      1.000     H          0.133783  
         H33       1.0000    0.76160   0.23840   0.52960   Biso      1.000     H          0.134052  
         H34       1.0000    0.47680   0.23840   0.52960   Biso      1.000     H          0.134053  
         H35       1.0000    0.08190   0.25140   0.25000   Biso      1.000     H          0.142709  
         H36       1.0000    0.23840   0.76160   0.02960   Biso      1.000     H          0.134044  
         H37       1.0000    0.23840   0.47680   0.02960   Biso      1.000     H          0.13378   
         H38       1.0000    0.06410   0.71260   0.32750   Biso      1.000     H          0.132198  
         H39       1.0000    0.28740   0.35150   0.32750   Biso      1.000     H          0.132187  
         H40       1.0000    0.76160   0.23840   0.97040   Biso      1.000     H          0.134046  
         H41       1.0000    0.47680   0.23840   0.97040   Biso      1.000     H          0.134045  
         H42       1.0000    0.64850   0.93590   0.32750   Biso      1.000     H          0.132476  
         H43       1.0000    0.23840   0.76160   0.47040   Biso      1.000     H          0.134056  
         H44       1.0000    0.52320   0.76160   0.47040   Biso      1.000     H          0.134057  
         H45       1.0000    0.23840   0.47680   0.47040   Biso      1.000     H          0.133782  
         H46       1.0000    0.52320   0.76160   0.02960   Biso      1.000     H          0.134043  
         H47       1.0000    0.76160   0.52320   0.97040   Biso      1.000     H          0.133778  
         H48       1.0000    0.71260   0.64850   0.82750   Biso      1.000     H          0.132187  
         O1        1.0000    0.41600   0.98280   0.09450   Biso      1.000     O          -0.518664           
         O2        1.0000    0.89100   0.52180   0.50270   Biso      1.000     O          -0.541607           
         O3        1.0000    0.52180   0.63080   0.00270   Biso      1.000     O          -0.541503           
         O4        1.0000    0.56680   0.58400   0.09450   Biso      1.000     O          -0.519522           
         O5        1.0000    0.10900   0.47820   0.00270   Biso      1.000     O          -0.541625           
         O6        1.0000    0.01720   0.43320   0.09450   Biso      1.000     O          -0.51949  
         O7        1.0000    0.63080   0.10900   0.50270   Biso      1.000     O          -0.541272           
         O8        1.0000    0.58400   0.01720   0.59450   Biso      1.000     O          -0.518614           
         O9        1.0000    0.47820   0.36920   0.50270   Biso      1.000     O          -0.541488           
         O10       1.0000    0.43320   0.41600   0.59450   Biso      1.000     O          -0.519506           
         O11       1.0000    0.63080   0.52180   0.99730   Biso      1.000     O          -0.541629           
         O12       1.0000    0.47820   0.10900   0.99730   Biso      1.000     O          -0.541265           
         O13       1.0000    0.43320   0.01720   0.90550   Biso      1.000     O          -0.518551           
         O14       1.0000    0.89100   0.36920   0.99730   Biso      1.000     O          -0.541479           
         O15       1.0000    0.98280   0.41600   0.90550   Biso      1.000     O          -0.519449           
         O16       1.0000    0.58400   0.56680   0.90550   Biso      1.000     O          -0.51948  
         O17       1.0000    0.52180   0.89100   0.49730   Biso      1.000     O          -0.54122  
         O18       1.0000    0.56680   0.98280   0.40550   Biso      1.000     O          -0.518524           
         O19       1.0000    0.10900   0.63080   0.49730   Biso      1.000     O          -0.541459           
         O20       1.0000    0.01720   0.58400   0.40550   Biso      1.000     O          -0.519429           
         O21       1.0000    0.36920   0.89100   0.00270   Biso      1.000     O          -0.541294           
         O22       1.0000    0.98280   0.56680   0.59450   Biso      1.000     O          -0.519469           
         O23       1.0000    0.58400   0.56680   0.59450   Biso      1.000     O          -0.519473           
         O24       1.0000    0.56680   0.58400   0.40550   Biso      1.000     O          -0.519427           
         O25       1.0000    0.98280   0.41600   0.59450   Biso      1.000     O          -0.519503           
         O26       1.0000    0.36920   0.47820   0.49730   Biso      1.000     O          -0.541615           
         O27       1.0000    0.63080   0.10900   0.99730   Biso      1.000     O          -0.541266           
         O28       1.0000    0.58400   0.01720   0.90550   Biso      1.000     O          -0.518552           
         O29       1.0000    0.47820   0.36920   0.99730   Biso      1.000     O          -0.541475           
         O30       1.0000    0.43320   0.41600   0.90550   Biso      1.000     O          -0.519449           
         O31       1.0000    0.89100   0.52180   0.99730   Biso      1.000     O          -0.541632           
         O32       1.0000    0.98280   0.56680   0.90550   Biso      1.000     O          -0.519479           
         O33       1.0000    0.36920   0.89100   0.49730   Biso      1.000     O          -0.54122  
         O34       1.0000    0.41600   0.98280   0.40550   Biso      1.000     O          -0.518527           
         O35       1.0000    0.52180   0.63080   0.49730   Biso      1.000     O          -0.541463           
         O36       1.0000    0.10900   0.47820   0.49730   Biso      1.000     O          -0.541611           
         O37       1.0000    0.01720   0.43320   0.40550   Biso      1.000     O          -0.519462           
         O38       1.0000    0.52180   0.89100   0.00270   Biso      1.000     O          -0.541293           
         O39       1.0000    0.56680   0.98280   0.09450   Biso      1.000     O          -0.518663           
         O40       1.0000    0.10900   0.63080   0.00270   Biso      1.000     O          -0.541504           
         O41       1.0000    0.01720   0.58400   0.09450   Biso      1.000     O          -0.519525           
         O42       1.0000    0.36920   0.47820   0.00270   Biso      1.000     O          -0.541625           
         O43       1.0000    0.41600   0.43320   0.09450   Biso      1.000     O          -0.519488           
         O44       1.0000    0.47820   0.10900   0.50270   Biso      1.000     O          -0.541271           
         O45       1.0000    0.43320   0.01720   0.59450   Biso      1.000     O          -0.518613           
         O46       1.0000    0.89100   0.36920   0.50270   Biso      1.000     O          -0.541489           
         O47       1.0000    0.63080   0.52180   0.50270   Biso      1.000     O          -0.541606           
         O48       1.0000    0.41600   0.43320   0.40550   Biso      1.000     O          -0.519461 