
##########################################################################
#               Crystallographic Information Format file
#               Produced by PyCifRW module
#
#  This is a CIF file.  CIF has been adopted by the International
#  Union of Crystallography as the standard for data archiving and
#  transmission.
#
#  For information on this file format, follow the CIF links at
#  http://www.iucr.org
##########################################################################

data_image0

_cell_length_a                          6.4355
_cell_length_b                          13.462
_cell_length_c                          13.753
_cell_angle_alpha                       61.532
_cell_angle_beta                        82.433
_cell_angle_gamma                       81.244
_symmetry_space_group_name_H-M          'P 1'
_symmetry_int_tables_number             1
loop_
  _symmetry_equiv_pos_as_xyz
         'x, y, z' 
loop_
  _atom_site_label
  _atom_site_occupancy
  _atom_site_fract_x
  _atom_site_fract_y
  _atom_site_fract_z
  _atom_site_thermal_displace_type
  _atom_site_B_iso_or_equiv
  _atom_site_type_symbol
  _atom_site_charge
         C1        1.0000    0.44240   0.27590   0.80440   Biso      1.000     C          0.571304  
         C2        1.0000    0.01970   0.12210   0.78270   Biso      1.000     C          -0.14297  
         C3        1.0000    0.13000   0.20820   0.77150   Biso      1.000     C          -0.086103           
         C4        1.0000    0.32660   0.18330   0.81320   Biso      1.000     C          -0.017168           
         C5        1.0000    0.41300   0.06990   0.86670   Biso      1.000     C          -0.107446           
         C6        1.0000    0.30400   0.98400   0.87580   Biso      1.000     C          -0.142257           
         C7        1.0000    0.39880   0.34920   0.09050   Biso      1.000     C          0.685996  
         C8        1.0000    0.08010   0.38430   0.92650   Biso      1.000     C          0.675984  
         C9        1.0000    0.11380   0.27650   0.03150   Biso      1.000     C          -0.071414           
         C10       1.0000    0.25200   0.26310   0.10860   Biso      1.000     C          -0.021074           
         C11       1.0000    0.25880   0.16410   0.20900   Biso      1.000     C          -0.177708           
         C12       1.0000    0.14060   0.07510   0.23440   Biso      1.000     C          0.033715  
         C13       1.0000    0.01110   0.08470   0.15400   Biso      1.000     C          0.019284  
         C14       1.0000    0.10740   0.00990   0.83310   Biso      1.000     C          0.076305  
         C15       1.0000    0.99790   0.18720   0.05570   Biso      1.000     C          -0.127774           
         C16       1.0000    0.98660   0.93100   0.41750   Biso      1.000     C          -0.144765           
         C17       1.0000    0.00970   0.83540   0.52060   Biso      1.000     C          -0.091317           
         C18       1.0000    0.21050   0.78160   0.55190   Biso      1.000     C          -0.06358  
         C19       1.0000    0.38590   0.82560   0.48150   Biso      1.000     C          -0.088796           
         C20       1.0000    0.36110   0.92080   0.38050   Biso      1.000     C          -0.145735           
         C21       1.0000    0.24020   0.67640   0.65860   Biso      1.000     C          0.659624  
         C22       1.0000    0.89260   0.99010   0.16690   Biso      1.000     C          0.076303  
         C23       1.0000    0.98030   0.87790   0.21730   Biso      1.000     C          -0.142969           
         C24       1.0000    0.87000   0.79180   0.22850   Biso      1.000     C          -0.086103           
         C25       1.0000    0.67340   0.81670   0.18680   Biso      1.000     C          -0.017169           
         C26       1.0000    0.58700   0.93010   0.13330   Biso      1.000     C          -0.107446           
         C27       1.0000    0.69600   0.01600   0.12420   Biso      1.000     C          -0.142255           
         C28       1.0000    0.15950   0.97280   0.34790   Biso      1.000     C          0.098346  
         C29       1.0000    0.75980   0.32360   0.34140   Biso      1.000     C          0.659625  
         C30       1.0000    0.55760   0.72410   0.19560   Biso      1.000     C          0.571305  
         C31       1.0000    0.63890   0.07920   0.61950   Biso      1.000     C          -0.145733           
         C32       1.0000    0.60120   0.65080   0.90950   Biso      1.000     C          0.685996  
         C33       1.0000    0.91990   0.61570   0.07350   Biso      1.000     C          0.675984  
         C34       1.0000    0.88620   0.72350   0.96850   Biso      1.000     C          -0.071414           
         C35       1.0000    0.74800   0.73690   0.89140   Biso      1.000     C          -0.021074           
         C36       1.0000    0.74120   0.83590   0.79100   Biso      1.000     C          -0.177708           
         C37       1.0000    0.85940   0.92490   0.76560   Biso      1.000     C          0.033716  
         C38       1.0000    0.00210   0.81280   0.94430   Biso      1.000     C          -0.127774           
         C39       1.0000    0.84050   0.02720   0.65210   Biso      1.000     C          0.098339  
         C40       1.0000    0.01340   0.06900   0.58250   Biso      1.000     C          -0.144757           
         C41       1.0000    0.98890   0.91530   0.84600   Biso      1.000     C          0.019284  
         C42       1.0000    0.78950   0.21840   0.44810   Biso      1.000     C          -0.063579           
         C43       1.0000    0.61410   0.17440   0.51850   Biso      1.000     C          -0.088798           
         C44       1.0000    0.99030   0.16460   0.47940   Biso      1.000     C          -0.09132  
         Gd1       1.0000    0.57850   0.45097   0.82929   Biso      1.000     Gd          2.06895   
         Gd2       1.0000    0.42150   0.54903   0.17071   Biso      1.000     Gd          2.068951  
         H1        1.0000    0.85270   0.96650   0.39600   Biso      1.000     H          0.119246  
         H2        1.0000    0.45630   0.94800   0.10390   Biso      1.000     H          0.114673  
         H3        1.0000    0.92840   0.71660   0.26420   Biso      1.000     H          0.118636  
         H4        1.0000    0.11380   0.86040   0.24380   Biso      1.000     H          0.112693  
         H5        1.0000    0.89120   0.38580   0.21320   Biso      1.000     H          0.434617  
         H6        1.0000    0.47890   0.95060   0.33390   Biso      1.000     H          0.113823  
         H7        1.0000    0.52020   0.79070   0.50260   Biso      1.000     H          0.12267   
         H8        1.0000    0.47980   0.20930   0.49740   Biso      1.000     H          0.12267   
         H9        1.0000    0.89190   0.80760   0.56810   Biso      1.000     H          0.120712  
         H10       1.0000    0.88620   0.13960   0.75620   Biso      1.000     H          0.112693  
         H11       1.0000    0.36280   0.90890   0.91070   Biso      1.000     H          0.122792  
         H12       1.0000    0.90750   0.19610   0.00400   Biso      1.000     H          0.132039  
         H13       1.0000    0.07160   0.28340   0.73580   Biso      1.000     H          0.118636  
         H14       1.0000    0.63720   0.09110   0.08930   Biso      1.000     H          0.122792  
         H15       1.0000    0.10810   0.19240   0.43190   Biso      1.000     H          0.120713  
         H16       1.0000    0.34580   0.15680   0.26140   Biso      1.000     H          0.123464  
         H17       1.0000    0.52110   0.04940   0.66610   Biso      1.000     H          0.113823  
         H18       1.0000    0.09250   0.80390   0.99600   Biso      1.000     H          0.132039  
         H19       1.0000    0.54370   0.05200   0.89610   Biso      1.000     H          0.114673  
         H20       1.0000    0.14730   0.03350   0.60400   Biso      1.000     H          0.119245  
         H21       1.0000    0.65420   0.84320   0.73860   Biso      1.000     H          0.123464  
         H22       1.0000    0.10880   0.61420   0.78680   Biso      1.000     H          0.434617  
         O1        1.0000    0.63640   0.60560   0.84690   Biso      1.000     O          -0.663637           
         O2        1.0000    0.92720   0.39830   0.87246   Biso      1.000     O          -0.662255           
         O3        1.0000    0.44710   0.63600   0.97889   Biso      1.000     O          -0.668853           
         O4        1.0000    0.79270   0.54047   0.10536   Biso      1.000     O          -0.678898           
         O5        1.0000    0.41240   0.61950   0.67880   Biso      1.000     O          -0.598699           
         O6        1.0000    0.07280   0.60170   0.12754   Biso      1.000     O          -0.662255           
         O7        1.0000    0.07270   0.64870   0.72450   Biso      1.000     O          -0.516975           
         O8        1.0000    0.60930   0.62160   0.26570   Biso      1.000     O          -0.664092           
         O9        1.0000    0.92730   0.35130   0.27550   Biso      1.000     O          -0.516975           
         O10       1.0000    0.39070   0.37840   0.73430   Biso      1.000     O          -0.664092           
         O11       1.0000    0.41760   0.74690   0.13050   Biso      1.000     O          -0.643358           
         O12       1.0000    0.58240   0.25310   0.86950   Biso      1.000     O          -0.643358           
         O13       1.0000    0.55290   0.36400   0.02111   Biso      1.000     O          -0.668853           
         O14       1.0000    0.36360   0.39440   0.15310   Biso      1.000     O          -0.663637           
         O15       1.0000    0.58760   0.38050   0.32120   Biso      1.000     O          -0.5987   
         O16       1.0000    0.20730   0.45953   0.89464   Biso      1.000     O          -0.678898 