
##########################################################################
#               Crystallographic Information Format file
#               Produced by PyCifRW module
#
#  This is a CIF file.  CIF has been adopted by the International
#  Union of Crystallography as the standard for data archiving and
#  transmission.
#
#  For information on this file format, follow the CIF links at
#  http://www.iucr.org
##########################################################################

data_image0

_cell_length_a                          13.424
_cell_length_b                          13.424
_cell_length_c                          14.752
_cell_angle_alpha                       90
_cell_angle_beta                        90
_cell_angle_gamma                       120
_symmetry_space_group_name_H-M          'P 1'
_symmetry_int_tables_number             1
loop_
  _symmetry_equiv_pos_as_xyz
         'x, y, z' 
loop_
  _atom_site_label
  _atom_site_occupancy
  _atom_site_fract_x
  _atom_site_fract_y
  _atom_site_fract_z
  _atom_site_thermal_displace_type
  _atom_site_B_iso_or_equiv
  _atom_site_type_symbol
  _atom_site_charge
         C1        1.0000    0.64600   0.74320   0.50800   Biso      1.000     C          0.049574  
         C2        1.0000    0.12290   0.56380   0.84200   Biso      1.000     C          0.569522  
         C3        1.0000    0.44090   0.56380   0.34200   Biso      1.000     C          0.569512  
         C4        1.0000    0.55200   0.66100   0.36000   Biso      1.000     C          0.029074000000000003          
         C5        1.0000    0.72940   0.55050   0.93010   Biso      1.000     C          0.573254  
         C6        1.0000    0.55050   0.72940   0.56990   Biso      1.000     C          0.5732510000000001  
         C7        1.0000    0.72940   0.17890   0.43010   Biso      1.000     C          0.573256  
         C8        1.0000    0.44950   0.27060   0.43010   Biso      1.000     C          0.5732510000000001  
         C9        1.0000    0.35400   0.25680   0.49200   Biso      1.000     C          0.049574  
         C10       1.0000    0.44800   0.33900   0.64000   Biso      1.000     C          0.029073  
         C11       1.0000    0.10900   0.66100   0.86000   Biso      1.000     C          0.029075999999999998          
         C12       1.0000    0.55910   0.43620   0.65800   Biso      1.000     C          0.569512  
         C13       1.0000    0.89100   0.33900   0.14000   Biso      1.000     C          0.029075999999999998          
         C14       1.0000    0.90280   0.25680   0.99200   Biso      1.000     C          0.049575  
         C15       1.0000    0.82110   0.27060   0.93010   Biso      1.000     C          0.573259  
         C16       1.0000    0.44950   0.17890   0.93010   Biso      1.000     C          0.573257  
         C17       1.0000    0.82110   0.55050   0.43010   Biso      1.000     C          0.573256  
         C18       1.0000    0.90280   0.64600   0.49200   Biso      1.000     C          0.04958   
         C19       1.0000    0.89100   0.55200   0.64000   Biso      1.000     C          0.02907   
         C20       1.0000    0.87710   0.44090   0.65800   Biso      1.000     C          0.569526  
         C21       1.0000    0.55910   0.12290   0.15800   Biso      1.000     C          0.569527  
         C22       1.0000    0.87710   0.43620   0.15800   Biso      1.000     C          0.569522  
         C23       1.0000    0.09720   0.74320   0.00800   Biso      1.000     C          0.049575  
         C24       1.0000    0.17890   0.72940   0.06990   Biso      1.000     C          0.573259  
         C25       1.0000    0.74320   0.09720   0.49200   Biso      1.000     C          0.049578  
         C26       1.0000    0.74320   0.64600   0.99200   Biso      1.000     C          0.049579000000000005          
         C27       1.0000    0.66100   0.55200   0.14000   Biso      1.000     C          0.029082999999999998          
         C28       1.0000    0.56380   0.44090   0.15800   Biso      1.000     C          0.5695140000000001  
         C29       1.0000    0.56380   0.12290   0.65800   Biso      1.000     C          0.569521  
         C30       1.0000    0.27060   0.44950   0.06990   Biso      1.000     C          0.573254  
         C31       1.0000    0.25680   0.35400   0.00800   Biso      1.000     C          0.049576999999999996          
         C32       1.0000    0.33900   0.44800   0.86000   Biso      1.000     C          0.029081  
         C33       1.0000    0.43620   0.55910   0.84200   Biso      1.000     C          0.5695140000000001  
         C34       1.0000    0.43620   0.87710   0.34200   Biso      1.000     C          0.569521  
         C35       1.0000    0.33900   0.89100   0.36000   Biso      1.000     C          0.029073  
         C36       1.0000    0.25680   0.90280   0.50800   Biso      1.000     C          0.049578  
         C37       1.0000    0.27060   0.82110   0.56990   Biso      1.000     C          0.573256  
         C38       1.0000    0.66100   0.10900   0.64000   Biso      1.000     C          0.029073  
         C39       1.0000    0.55050   0.82110   0.06990   Biso      1.000     C          0.573258  
         C40       1.0000    0.64600   0.90280   0.00800   Biso      1.000     C          0.04958   
         C41       1.0000    0.55200   0.89100   0.86000   Biso      1.000     C          0.029075  
         C42       1.0000    0.44090   0.87710   0.84200   Biso      1.000     C          0.569527  
         C43       1.0000    0.12290   0.55910   0.34200   Biso      1.000     C          0.569525  
         C44       1.0000    0.10900   0.44800   0.36000   Biso      1.000     C          0.029071  
         C45       1.0000    0.09720   0.35400   0.50800   Biso      1.000     C          0.049581  
         C46       1.0000    0.17890   0.44950   0.56990   Biso      1.000     C          0.573256  
         C47       1.0000    0.44800   0.10900   0.14000   Biso      1.000     C          0.029075  
         C48       1.0000    0.35400   0.09720   0.99200   Biso      1.000     C          0.04958   
         Cu1       1.0000    0.50000   0.00000   0.50000   Biso      1.000     Cu          0.852725  
         Cu2       1.0000    0.50000   0.50000   0.00000   Biso      1.000     Cu          0.8526870000000001  
         Cu3       1.0000    0.50000   0.00000   0.00000   Biso      1.000     Cu          0.8527    
         Cu4       1.0000    0.00000   0.50000   0.00000   Biso      1.000     Cu          0.852699  
         Cu5       1.0000    0.50000   0.50000   0.50000   Biso      1.000     Cu          0.852728  
         Cu6       1.0000    0.00000   0.50000   0.50000   Biso      1.000     Cu          0.852725  
         N1        1.0000    0.38760   0.03960   0.05700   Biso      1.000     N          -0.16610999999999998          
         N2        1.0000    0.61240   0.65200   0.44300   Biso      1.000     N          -0.166113           
         N3        1.0000    0.03960   0.38760   0.44300   Biso      1.000     N          -0.166116           
         N4        1.0000    0.34800   0.96040   0.44300   Biso      1.000     N          -0.16611199999999998          
         N5        1.0000    0.96040   0.34800   0.05700   Biso      1.000     N          -0.166106           
         N6        1.0000    0.65200   0.61240   0.05700   Biso      1.000     N          -0.166105           
         N7        1.0000    0.38760   0.34800   0.55700   Biso      1.000     N          -0.166113           
         N8        1.0000    0.34800   0.38760   0.94300   Biso      1.000     N          -0.166105           
         N9        1.0000    0.65200   0.03960   0.55700   Biso      1.000     N          -0.16611199999999998          
         N10       1.0000    0.03960   0.65200   0.94300   Biso      1.000     N          -0.166107           
         N11       1.0000    0.61240   0.96040   0.94300   Biso      1.000     N          -0.16610999999999998          
         N12       1.0000    0.96040   0.61240   0.55700   Biso      1.000     N          -0.166116           
         O1        1.0000    0.56370   0.38560   0.22600   Biso      1.000     O          -0.569469           
         O2        1.0000    0.24390   0.44240   0.62780   Biso      1.000     O          -0.505352           
         O3        1.0000    0.18760   0.54900   0.55930   Biso      1.000     O          -0.646418           
         O4        1.0000    0.17810   0.61440   0.27400   Biso      1.000     O          -0.569498           
         O5        1.0000    0.07050   0.59930   0.39550   Biso      1.000     O          -0.46363699999999997          
         O6        1.0000    0.07050   0.47120   0.89550   Biso      1.000     O          -0.463629           
         O7        1.0000    0.17810   0.56370   0.77400   Biso      1.000     O          -0.569498           
         O8        1.0000    0.18760   0.63860   0.05930   Biso      1.000     O          -0.646397           
         O9        1.0000    0.24390   0.80150   0.12780   Biso      1.000     O          -0.505368           
         O10       1.0000    0.36140   0.81240   0.55930   Biso      1.000     O          -0.6463979999999999           
         O11       1.0000    0.44240   0.19850   0.37220   Biso      1.000     O          -0.50537  
         O12       1.0000    0.43630   0.82190   0.27400   Biso      1.000     O          -0.569495           
         O13       1.0000    0.52880   0.92950   0.39550   Biso      1.000     O          -0.463632           
         O14       1.0000    0.40070   0.92950   0.89550   Biso      1.000     O          -0.463632           
         O15       1.0000    0.38560   0.82190   0.77400   Biso      1.000     O          -0.569499           
         O16       1.0000    0.45100   0.81240   0.05930   Biso      1.000     O          -0.646415           
         O17       1.0000    0.55760   0.75610   0.12780   Biso      1.000     O          -0.505352           
         O18       1.0000    0.52880   0.59930   0.89550   Biso      1.000     O          -0.463628           
         O19       1.0000    0.43630   0.61440   0.77400   Biso      1.000     O          -0.569469           
         O20       1.0000    0.36140   0.54900   0.05930   Biso      1.000     O          -0.6463869999999999           
         O21       1.0000    0.19850   0.75610   0.62780   Biso      1.000     O          -0.505366           
         O22       1.0000    0.47120   0.40070   0.10450   Biso      1.000     O          -0.46362700000000007          
         O23       1.0000    0.54900   0.36140   0.44070   Biso      1.000     O          -0.6463909999999999           
         O24       1.0000    0.59930   0.52880   0.60450   Biso      1.000     O          -0.463635           
         O25       1.0000    0.63860   0.45100   0.94070   Biso      1.000     O          -0.646388           
         O26       1.0000    0.80150   0.55760   0.87220   Biso      1.000     O          -0.50537  
         O27       1.0000    0.44240   0.24390   0.87220   Biso      1.000     O          -0.505352           
         O28       1.0000    0.54900   0.18760   0.94070   Biso      1.000     O          -0.646415           
         O29       1.0000    0.61440   0.17810   0.22600   Biso      1.000     O          -0.569499           
         O30       1.0000    0.59930   0.07050   0.10450   Biso      1.000     O          -0.463632           
         O31       1.0000    0.47120   0.07050   0.60450   Biso      1.000     O          -0.463632           
         O32       1.0000    0.56370   0.17810   0.72600   Biso      1.000     O          -0.569495           
         O33       1.0000    0.61440   0.43630   0.72600   Biso      1.000     O          -0.569469           
         O34       1.0000    0.80150   0.24390   0.37220   Biso      1.000     O          -0.505366           
         O35       1.0000    0.75610   0.19850   0.87220   Biso      1.000     O          -0.505367           
         O36       1.0000    0.63860   0.18760   0.44070   Biso      1.000     O          -0.6463979999999999           
         O37       1.0000    0.82190   0.43630   0.22600   Biso      1.000     O          -0.569497           
         O38       1.0000    0.92950   0.52880   0.10450   Biso      1.000     O          -0.463629           
         O39       1.0000    0.92950   0.40070   0.60450   Biso      1.000     O          -0.46363699999999997          
         O40       1.0000    0.82190   0.38560   0.72600   Biso      1.000     O          -0.569498           
         O41       1.0000    0.81240   0.45100   0.44070   Biso      1.000     O          -0.646418           
         O42       1.0000    0.75610   0.55760   0.37220   Biso      1.000     O          -0.505351           
         O43       1.0000    0.55760   0.80150   0.62780   Biso      1.000     O          -0.50537  
         O44       1.0000    0.45100   0.63860   0.55930   Biso      1.000     O          -0.6463909999999999           
         O45       1.0000    0.38560   0.56370   0.27400   Biso      1.000     O          -0.569469           
         O46       1.0000    0.40070   0.47120   0.39550   Biso      1.000     O          -0.463635           
         O47       1.0000    0.81240   0.36140   0.94070   Biso      1.000     O          -0.646397           
         O48       1.0000    0.19850   0.44240   0.12780   Biso      1.000     O          -0.505369           
         Pr1       1.0000    0.33333   0.66667   0.16880   Biso      1.000     Pr          2.1096310000000003  
         Pr2       1.0000    0.66667   0.33333   0.33120   Biso      1.000     Pr          2.109632  
         Pr3       1.0000    0.66667   0.33333   0.83120   Biso      1.000     Pr          2.109632  
         Pr4       1.0000    0.33333   0.66667   0.66880   Biso      1.000     Pr          2.109632 