
##########################################################################
#               Crystallographic Information Format file
#               Produced by PyCifRW module
#
#  This is a CIF file.  CIF has been adopted by the International
#  Union of Crystallography as the standard for data archiving and
#  transmission.
#
#  For information on this file format, follow the CIF links at
#  http://www.iucr.org
##########################################################################

data_image0

_cell_length_a                          16.557
_cell_length_b                          18.311
_cell_length_c                          11.9349
_cell_angle_alpha                       90
_cell_angle_beta                        123.096
_cell_angle_gamma                       90
_symmetry_space_group_name_H-M          'P 1'
_symmetry_int_tables_number             1
loop_
  _symmetry_equiv_pos_as_xyz
         'x, y, z' 
loop_
  _atom_site_label
  _atom_site_occupancy
  _atom_site_fract_x
  _atom_site_fract_y
  _atom_site_fract_z
  _atom_site_thermal_displace_type
  _atom_site_B_iso_or_equiv
  _atom_site_type_symbol
  _atom_site_charge
         C1        1.0000    0.34530   0.11000   0.50180   Biso      1.000     C          0.615793  
         C2        1.0000    0.26810   0.97850   0.80940   Biso      1.000     C          -0.150403           
         C3        1.0000    0.33730   0.96400   0.94190   Biso      1.000     C          -0.010786           
         C4        1.0000    0.26810   0.02150   0.30940   Biso      1.000     C          -0.150403           
         C5        1.0000    0.59810   0.98240   0.98400   Biso      1.000     C          -0.096009           
         C6        1.0000    0.65470   0.11000   0.99820   Biso      1.000     C          0.615793  
         C7        1.0000    0.66420   0.83210   0.23600   Biso      1.000     C          0.630081  
         C8        1.0000    0.59600   0.40320   0.89520   Biso      1.000     C          -0.009883           
         C9        1.0000    0.26500   0.95450   0.25500   Biso      1.000     C          -0.111299           
         C10       1.0000    0.98400   0.16500   0.02850   Biso      1.000     C          0.017939  
         C11       1.0000    0.01130   0.10220   0.99740   Biso      1.000     C          -0.161037           
         C12       1.0000    0.98610   0.03450   0.01870   Biso      1.000     C          0.098764  
         C13       1.0000    0.33150   0.90090   0.32910   Biso      1.000     C          -0.007497           
         C14       1.0000    0.93220   0.03310   0.07560   Biso      1.000     C          -0.176722           
         C15       1.0000    0.39990   0.91580   0.46170   Biso      1.000     C          -0.129243           
         C16       1.0000    0.90400   0.09680   0.10480   Biso      1.000     C          -0.009878           
         C17       1.0000    0.83580   0.66790   0.76400   Biso      1.000     C          0.630081  
         C18       1.0000    0.84530   0.39000   0.00180   Biso      1.000     C          0.615793  
         C19       1.0000    0.90190   0.51760   0.01600   Biso      1.000     C          -0.096009           
         C20       1.0000    0.40190   0.98240   0.51600   Biso      1.000     C          -0.096004           
         C21       1.0000    0.89990   0.58420   0.96170   Biso      1.000     C          -0.129241           
         C22       1.0000    0.83150   0.59910   0.82910   Biso      1.000     C          -0.007498           
         C23       1.0000    0.76500   0.54550   0.75500   Biso      1.000     C          -0.1113   
         C24       1.0000    0.83580   0.33210   0.26400   Biso      1.000     C          0.630081  
         C25       1.0000    0.76810   0.47850   0.80940   Biso      1.000     C          -0.150399           
         C26       1.0000    0.83730   0.46400   0.94190   Biso      1.000     C          -0.010776           
         C27       1.0000    0.33730   0.03600   0.44190   Biso      1.000     C          -0.010776           
         C28       1.0000    0.33580   0.83210   0.26400   Biso      1.000     C          0.630081  
         C29       1.0000    0.26500   0.04550   0.75500   Biso      1.000     C          -0.111299           
         C30       1.0000    0.33150   0.09910   0.82910   Biso      1.000     C          -0.007498           
         C31       1.0000    0.90190   0.48240   0.51600   Biso      1.000     C          -0.096009           
         C32       1.0000    0.90400   0.90320   0.60480   Biso      1.000     C          -0.009883           
         C33       1.0000    0.89990   0.41580   0.46170   Biso      1.000     C          -0.129241           
         C34       1.0000    0.83150   0.40090   0.32910   Biso      1.000     C          -0.007498           
         C35       1.0000    0.76500   0.45450   0.25500   Biso      1.000     C          -0.1113   
         C36       1.0000    0.93220   0.96690   0.57560   Biso      1.000     C          -0.176718           
         C37       1.0000    0.76810   0.52150   0.30940   Biso      1.000     C          -0.150399           
         C38       1.0000    0.83730   0.53600   0.44190   Biso      1.000     C          -0.010776           
         C39       1.0000    0.98610   0.96550   0.51870   Biso      1.000     C          0.098764  
         C40       1.0000    0.01130   0.89780   0.49740   Biso      1.000     C          -0.161049           
         C41       1.0000    0.66850   0.90090   0.17090   Biso      1.000     C          -0.007501           
         C42       1.0000    0.60010   0.91580   0.03830   Biso      1.000     C          -0.129238           
         C43       1.0000    0.98400   0.83500   0.52850   Biso      1.000     C          0.017951  
         C44       1.0000    0.48400   0.66500   0.02850   Biso      1.000     C          0.017939  
         C45       1.0000    0.51130   0.60220   0.99740   Biso      1.000     C          -0.161037           
         C46       1.0000    0.48610   0.53450   0.01870   Biso      1.000     C          0.098764  
         C47       1.0000    0.73500   0.95450   0.24500   Biso      1.000     C          -0.1113   
         C48       1.0000    0.43220   0.53310   0.07560   Biso      1.000     C          -0.176722           
         C49       1.0000    0.40400   0.59680   0.10480   Biso      1.000     C          -0.009878           
         C50       1.0000    0.33580   0.16790   0.76400   Biso      1.000     C          0.630081  
         C51       1.0000    0.34530   0.89000   0.00180   Biso      1.000     C          0.615794  
         C52       1.0000    0.73190   0.02150   0.19060   Biso      1.000     C          -0.1504   
         C53       1.0000    0.40190   0.01760   0.01600   Biso      1.000     C          -0.095997           
         C54       1.0000    0.01600   0.83500   0.97150   Biso      1.000     C          0.017939  
         C55       1.0000    0.39990   0.08420   0.96170   Biso      1.000     C          -0.12924  
         C56       1.0000    0.66270   0.03600   0.05810   Biso      1.000     C          -0.010776           
         C57       1.0000    0.40400   0.40320   0.60480   Biso      1.000     C          -0.009883           
         C58       1.0000    0.84530   0.61000   0.50180   Biso      1.000     C          0.615793  
         C59       1.0000    0.16850   0.40090   0.17090   Biso      1.000     C          -0.0075   
         C60       1.0000    0.16270   0.46400   0.55810   Biso      1.000     C          -0.010789           
         C61       1.0000    0.66270   0.96400   0.55810   Biso      1.000     C          -0.010789           
         C62       1.0000    0.23190   0.52150   0.19060   Biso      1.000     C          -0.150404           
         C63       1.0000    0.23190   0.47850   0.69060   Biso      1.000     C          -0.1504   
         C64       1.0000    0.51600   0.33500   0.97150   Biso      1.000     C          0.017939  
         C65       1.0000    0.23500   0.45450   0.24500   Biso      1.000     C          -0.111295           
         C66       1.0000    0.56780   0.46690   0.92440   Biso      1.000     C          -0.176718           
         C67       1.0000    0.10010   0.41580   0.03830   Biso      1.000     C          -0.129243           
         C68       1.0000    0.01600   0.16500   0.47150   Biso      1.000     C          0.017939  
         C69       1.0000    0.98870   0.10220   0.50260   Biso      1.000     C          -0.161037           
         C70       1.0000    0.01390   0.03450   0.48130   Biso      1.000     C          0.098763  
         C71       1.0000    0.09810   0.48240   0.98400   Biso      1.000     C          -0.096004           
         C72       1.0000    0.06780   0.03310   0.42440   Biso      1.000     C          -0.176722           
         C73       1.0000    0.23500   0.54550   0.74500   Biso      1.000     C          -0.1113   
         C74       1.0000    0.09600   0.90320   0.89520   Biso      1.000     C          -0.009883           
         C75       1.0000    0.09600   0.09680   0.39520   Biso      1.000     C          -0.009878           
         C76       1.0000    0.16420   0.66790   0.73600   Biso      1.000     C          0.630081  
         C77       1.0000    0.15470   0.39000   0.49820   Biso      1.000     C          0.615794  
         C78       1.0000    0.15470   0.61000   0.99820   Biso      1.000     C          0.615793  
         C79       1.0000    0.16850   0.59910   0.67090   Biso      1.000     C          -0.007498           
         C80       1.0000    0.09810   0.51760   0.48400   Biso      1.000     C          -0.095997           
         C81       1.0000    0.16420   0.33210   0.23600   Biso      1.000     C          0.630081  
         C82       1.0000    0.16270   0.53600   0.05810   Biso      1.000     C          -0.010776           
         C83       1.0000    0.73190   0.97850   0.69060   Biso      1.000     C          -0.150399           
         C84       1.0000    0.06780   0.96690   0.92440   Biso      1.000     C          -0.176718           
         C85       1.0000    0.51390   0.46550   0.98130   Biso      1.000     C          0.098763  
         C86       1.0000    0.48870   0.39780   0.00260   Biso      1.000     C          -0.161037           
         C87       1.0000    0.43220   0.46690   0.57560   Biso      1.000     C          -0.176718           
         C88       1.0000    0.51600   0.66500   0.47150   Biso      1.000     C          0.017939  
         C89       1.0000    0.98870   0.89780   0.00260   Biso      1.000     C          -0.161037           
         C90       1.0000    0.48870   0.60220   0.50260   Biso      1.000     C          -0.161037           
         C91       1.0000    0.51390   0.53450   0.48130   Biso      1.000     C          0.098764  
         C92       1.0000    0.48610   0.46550   0.51870   Biso      1.000     C          0.098764  
         C93       1.0000    0.56780   0.53310   0.42440   Biso      1.000     C          -0.176722           
         C94       1.0000    0.01390   0.96550   0.98130   Biso      1.000     C          0.098763  
         C95       1.0000    0.73500   0.04550   0.74500   Biso      1.000     C          -0.1113   
         C96       1.0000    0.51130   0.39780   0.49740   Biso      1.000     C          -0.161049           
         C97       1.0000    0.59600   0.59680   0.39520   Biso      1.000     C          -0.009878           
         C98       1.0000    0.66420   0.16790   0.73600   Biso      1.000     C          0.630081  
         C99       1.0000    0.65470   0.89000   0.49820   Biso      1.000     C          0.615794  
         C100      1.0000    0.59810   0.01760   0.48400   Biso      1.000     C          -0.095996           
         C101      1.0000    0.48400   0.33500   0.52850   Biso      1.000     C          0.017951  
         C102      1.0000    0.60010   0.08420   0.53830   Biso      1.000     C          -0.129243           
         C103      1.0000    0.66850   0.09910   0.67090   Biso      1.000     C          -0.007495           
         C104      1.0000    0.10010   0.58420   0.53830   Biso      1.000     C          -0.12924  
         H1        1.0000    0.14400   0.90000   0.87000   Biso      1.000     H          0.130681  
         H2        1.0000    0.09000   0.00900   0.91200   Biso      1.000     H          0.138316  
         H3        1.0000    0.95100   0.88900   0.03900   Biso      1.000     H          0.139526  
         H4        1.0000    0.85600   0.90000   0.63000   Biso      1.000     H          0.130681  
         H5        1.0000    0.91000   0.00900   0.58800   Biso      1.000     H          0.138316  
         H6        1.0000    0.35600   0.40000   0.63000   Biso      1.000     H          0.130681  
         H7        1.0000    0.00500   0.78100   0.52300   Biso      1.000     H          0.150774  
         H8        1.0000    0.77100   0.05700   0.24500   Biso      1.000     H          0.109754  
         H9        1.0000    0.06800   0.49300   0.90400   Biso      1.000     H          0.121389  
         H10       1.0000    0.07300   0.38100   0.99900   Biso      1.000     H          0.127173  
         H11       1.0000    0.28100   0.44600   0.34200   Biso      1.000     H          0.085061  
         H12       1.0000    0.27100   0.55700   0.24500   Biso      1.000     H          0.109754  
         H13       1.0000    0.22900   0.05700   0.25500   Biso      1.000     H          0.109754  
         H14       1.0000    0.50500   0.28100   0.52300   Biso      1.000     H          0.150774  
         H15       1.0000    0.21900   0.94600   0.15800   Biso      1.000     H          0.085061  
         H16       1.0000    0.54900   0.38900   0.46100   Biso      1.000     H          0.139527  
         H17       1.0000    0.42700   0.88100   0.50100   Biso      1.000     H          0.127173  
         H18       1.0000    0.43200   0.99300   0.59600   Biso      1.000     H          0.121389  
         H19       1.0000    0.41000   0.50900   0.58800   Biso      1.000     H          0.138316  
         H20       1.0000    0.04900   0.88900   0.46100   Biso      1.000     H          0.139526  
         H21       1.0000    0.42700   0.11900   0.00100   Biso      1.000     H          0.127173  
         H22       1.0000    0.99500   0.78100   0.97700   Biso      1.000     H          0.150774  
         H23       1.0000    0.92700   0.38100   0.50100   Biso      1.000     H          0.127174  
         H24       1.0000    0.64400   0.40000   0.87000   Biso      1.000     H          0.130681  
         H25       1.0000    0.59000   0.50900   0.91200   Biso      1.000     H          0.138316  
         H26       1.0000    0.49500   0.71900   0.47700   Biso      1.000     H          0.150775  
         H27       1.0000    0.45100   0.61100   0.53900   Biso      1.000     H          0.139526  
         H28       1.0000    0.93200   0.49300   0.59600   Biso      1.000     H          0.12139   
         H29       1.0000    0.64400   0.60000   0.37000   Biso      1.000     H          0.13068   
         H30       1.0000    0.56800   0.00700   0.40400   Biso      1.000     H          0.121389  
         H31       1.0000    0.57300   0.11900   0.49900   Biso      1.000     H          0.127174  
         H32       1.0000    0.78100   0.05400   0.84200   Biso      1.000     H          0.085061  
         H33       1.0000    0.72900   0.44300   0.75500   Biso      1.000     H          0.109754  
         H34       1.0000    0.77100   0.94300   0.74500   Biso      1.000     H          0.109754  
         H35       1.0000    0.49500   0.28100   0.97700   Biso      1.000     H          0.150775  
         H36       1.0000    0.99500   0.21900   0.47700   Biso      1.000     H          0.150775  
         H37       1.0000    0.95100   0.11100   0.53900   Biso      1.000     H          0.139526  
         H38       1.0000    0.09000   0.99100   0.41200   Biso      1.000     H          0.138317  
         H39       1.0000    0.14400   0.10000   0.37000   Biso      1.000     H          0.13068   
         H40       1.0000    0.06800   0.50700   0.40400   Biso      1.000     H          0.121389  
         H41       1.0000    0.07300   0.61900   0.49900   Biso      1.000     H          0.127173  
         H42       1.0000    0.28100   0.55400   0.84200   Biso      1.000     H          0.085061  
         H43       1.0000    0.27100   0.44300   0.74500   Biso      1.000     H          0.109754  
         H44       1.0000    0.45100   0.38900   0.03900   Biso      1.000     H          0.139526  
         H45       1.0000    0.71900   0.55400   0.65800   Biso      1.000     H          0.085061  
         H46       1.0000    0.59000   0.49100   0.41200   Biso      1.000     H          0.138317  
         H47       1.0000    0.93200   0.50700   0.09600   Biso      1.000     H          0.12139   
         H48       1.0000    0.35600   0.60000   0.13000   Biso      1.000     H          0.13068   
         H49       1.0000    0.92700   0.61900   0.00100   Biso      1.000     H          0.127174  
         H50       1.0000    0.43200   0.00700   0.09600   Biso      1.000     H          0.12139   
         H51       1.0000    0.50500   0.71900   0.02300   Biso      1.000     H          0.150774  
         H52       1.0000    0.57300   0.88100   0.99900   Biso      1.000     H          0.127173  
         H53       1.0000    0.78100   0.94600   0.34200   Biso      1.000     H          0.085061  
         H54       1.0000    0.72900   0.55700   0.25500   Biso      1.000     H          0.109754  
         H55       1.0000    0.71900   0.44600   0.15800   Biso      1.000     H          0.085061  
         H56       1.0000    0.41000   0.49100   0.08800   Biso      1.000     H          0.138317  
         H57       1.0000    0.21900   0.05400   0.65800   Biso      1.000     H          0.085061  
         H58       1.0000    0.22900   0.94300   0.75500   Biso      1.000     H          0.109754  
         H59       1.0000    0.56800   0.99300   0.90400   Biso      1.000     H          0.12139   
         H60       1.0000    0.00500   0.21900   0.02300   Biso      1.000     H          0.150775  
         H61       1.0000    0.04900   0.11100   0.96100   Biso      1.000     H          0.139526  
         H62       1.0000    0.91000   0.99100   0.08800   Biso      1.000     H          0.138317  
         H63       1.0000    0.85600   0.10000   0.13000   Biso      1.000     H          0.13068   
         H64       1.0000    0.54900   0.61100   0.96100   Biso      1.000     H          0.139526  
         Mg1       1.0000    0.50000   0.19776   0.75000   Biso      1.000     Mg          1.37884   
         Mg2       1.0000    0.25000   0.25000   0.50000   Biso      1.000     Mg          1.359795  
         Mg3       1.0000    0.75000   0.75000   0.50000   Biso      1.000     Mg          1.359795  
         Mg4       1.0000    0.75000   0.25000   0.00000   Biso      1.000     Mg          1.359795  
         Mg5       1.0000    0.00000   0.69776   0.75000   Biso      1.000     Mg          1.37884   
         Mg6       1.0000    0.25000   0.75000   0.00000   Biso      1.000     Mg          1.359795  
         Mg7       1.0000    0.00000   0.30224   0.25000   Biso      1.000     Mg          1.37884   
         Mg8       1.0000    0.50000   0.80224   0.25000   Biso      1.000     Mg          1.37884   
         N1        1.0000    0.06980   0.83910   0.91870   Biso      1.000     N          0.345351  
         N2        1.0000    0.93020   0.83910   0.58130   Biso      1.000     N          0.34535   
         N3        1.0000    0.06980   0.16090   0.41870   Biso      1.000     N          0.345351  
         N4        1.0000    0.56980   0.33910   0.91870   Biso      1.000     N          0.345351  
         N5        1.0000    0.43020   0.33910   0.58130   Biso      1.000     N          0.34535   
         N6        1.0000    0.43020   0.66090   0.08130   Biso      1.000     N          0.345351  
         N7        1.0000    0.93020   0.16090   0.08130   Biso      1.000     N          0.345351  
         N8        1.0000    0.56980   0.66090   0.41870   Biso      1.000     N          0.345351  
         O1        1.0000    0.58439   0.12010   0.88200   Biso      1.000     O          -0.631568           
         O2        1.0000    0.72040   0.15682   0.06860   Biso      1.000     O          -0.66388  
         O3        1.0000    0.58595   0.79772   0.17610   Biso      1.000     O          -0.673163           
         O4        1.0000    0.73762   0.81354   0.34720   Biso      1.000     O          -0.652019           
         O5        1.0000    0.59758   0.27747   0.88830   Biso      1.000     O          -0.60643  
         O6        1.0000    0.08439   0.37990   0.38200   Biso      1.000     O          -0.631569           
         O7        1.0000    0.23762   0.31354   0.34720   Biso      1.000     O          -0.652019           
         O8        1.0000    0.22040   0.34318   0.56860   Biso      1.000     O          -0.66388  
         O9        1.0000    0.08595   0.70228   0.67610   Biso      1.000     O          -0.673164           
         O10       1.0000    0.23762   0.68646   0.84720   Biso      1.000     O          -0.652019           
         O11       1.0000    0.09758   0.22253   0.38830   Biso      1.000     O          -0.60643  
         O12       1.0000    0.58439   0.87990   0.38200   Biso      1.000     O          -0.631569           
         O13       1.0000    0.72040   0.84318   0.56860   Biso      1.000     O          -0.66388  
         O14       1.0000    0.58595   0.20228   0.67610   Biso      1.000     O          -0.673164           
         O15       1.0000    0.73762   0.18646   0.84720   Biso      1.000     O          -0.652019           
         O16       1.0000    0.59758   0.72253   0.38830   Biso      1.000     O          -0.60643  
         O17       1.0000    0.91561   0.37990   0.11800   Biso      1.000     O          -0.631568           
         O18       1.0000    0.77960   0.34318   0.93140   Biso      1.000     O          -0.66388  
         O19       1.0000    0.91405   0.70228   0.82390   Biso      1.000     O          -0.673163           
         O20       1.0000    0.76238   0.68646   0.65280   Biso      1.000     O          -0.652019           
         O21       1.0000    0.90242   0.22253   0.11170   Biso      1.000     O          -0.60643  
         O22       1.0000    0.41561   0.87990   0.11800   Biso      1.000     O          -0.631569           
         O23       1.0000    0.27960   0.84318   0.93140   Biso      1.000     O          -0.66388  
         O24       1.0000    0.41405   0.20228   0.82390   Biso      1.000     O          -0.673163           
         O25       1.0000    0.08595   0.29772   0.17610   Biso      1.000     O          -0.673163           
         O26       1.0000    0.22040   0.65682   0.06860   Biso      1.000     O          -0.66388  
         O27       1.0000    0.08439   0.62010   0.88200   Biso      1.000     O          -0.631568           
         O28       1.0000    0.40242   0.27747   0.61170   Biso      1.000     O          -0.60643  
         O29       1.0000    0.26238   0.81354   0.15280   Biso      1.000     O          -0.652019           
         O30       1.0000    0.41405   0.79772   0.32390   Biso      1.000     O          -0.673163           
         O31       1.0000    0.09758   0.77747   0.88830   Biso      1.000     O          -0.60643  
         O32       1.0000    0.27960   0.15682   0.43140   Biso      1.000     O          -0.66388  
         O33       1.0000    0.90242   0.77747   0.61170   Biso      1.000     O          -0.60643  
         O34       1.0000    0.91405   0.29772   0.32390   Biso      1.000     O          -0.673163           
         O35       1.0000    0.77960   0.65682   0.43140   Biso      1.000     O          -0.66388  
         O36       1.0000    0.91561   0.62010   0.61800   Biso      1.000     O          -0.631568           
         O37       1.0000    0.40242   0.72253   0.11170   Biso      1.000     O          -0.60643  
         O38       1.0000    0.26238   0.18646   0.65280   Biso      1.000     O          -0.652019           
         O39       1.0000    0.41561   0.12010   0.61800   Biso      1.000     O          -0.631568           
         O40       1.0000    0.76238   0.31354   0.15280   Biso      1.000     O          -0.652019 