
##########################################################################
#               Crystallographic Information Format file
#               Produced by PyCifRW module
#
#  This is a CIF file.  CIF has been adopted by the International
#  Union of Crystallography as the standard for data archiving and
#  transmission.
#
#  For information on this file format, follow the CIF links at
#  http://www.iucr.org
##########################################################################

data_image0

_cell_length_a                          18.1876
_cell_length_b                          17.2441
_cell_length_c                          13.5313
_cell_angle_alpha                       90
_cell_angle_beta                        129.505
_cell_angle_gamma                       90
_symmetry_space_group_name_H-M          'P 1'
_symmetry_int_tables_number             1
loop_
  _symmetry_equiv_pos_as_xyz
         'x, y, z' 
loop_
  _atom_site_label
  _atom_site_occupancy
  _atom_site_fract_x
  _atom_site_fract_y
  _atom_site_fract_z
  _atom_site_thermal_displace_type
  _atom_site_B_iso_or_equiv
  _atom_site_type_symbol
  _atom_site_charge
         C1        1.0000    0.34370   0.33169   0.25490   Biso      1.000     C          0.633765  
         C2        1.0000    0.26010   0.55320   0.75630   Biso      1.000     C          -0.103502           
         C3        1.0000    0.33810   0.60229   0.82250   Biso      1.000     C          -0.029703           
         C4        1.0000    0.26010   0.44680   0.25630   Biso      1.000     C          -0.103502           
         C5        1.0000    0.58640   0.41400   0.05080   Biso      1.000     C          -0.115107           
         C6        1.0000    0.65630   0.33169   0.24510   Biso      1.000     C          0.633765  
         C7        1.0000    0.66090   0.60257   0.99440   Biso      1.000     C          0.622247  
         C8        1.0000    0.58620   0.08820   0.39760   Biso      1.000     C          -0.028582           
         C9        1.0000    0.25950   0.51280   0.31560   Biso      1.000     C          -0.149298           
         C10       1.0000    0.96360   0.32830   0.51970   Biso      1.000     C          0.011916  
         C11       1.0000    0.99320   0.39070   0.48890   Biso      1.000     C          -0.144682           
         C12       1.0000    0.98470   0.46610   0.51700   Biso      1.000     C          0.09624   
         C13       1.0000    0.33530   0.52907   0.44140   Biso      1.000     C          -0.01896  
         C14       1.0000    0.94330   0.47510   0.57440   Biso      1.000     C          -0.168082           
         C15       1.0000    0.41250   0.47850   0.50870   Biso      1.000     C          -0.095431           
         C16       1.0000    0.91380   0.41180   0.60240   Biso      1.000     C          -0.028576           
         C17       1.0000    0.83910   0.89743   0.00560   Biso      1.000     C          0.622247  
         C18       1.0000    0.84370   0.16831   0.75490   Biso      1.000     C          0.633765  
         C19       1.0000    0.91360   0.08600   0.94920   Biso      1.000     C          -0.115107           
         C20       1.0000    0.41360   0.41400   0.44920   Biso      1.000     C          -0.115104           
         C21       1.0000    0.91250   0.02150   0.00870   Biso      1.000     C          -0.095429           
         C22       1.0000    0.83530   0.97093   0.94140   Biso      1.000     C          -0.018964           
         C23       1.0000    0.75950   0.98720   0.81560   Biso      1.000     C          -0.149295           
         C24       1.0000    0.83910   0.10257   0.50560   Biso      1.000     C          0.622247  
         C25       1.0000    0.76010   0.05320   0.75630   Biso      1.000     C          -0.103502           
         C26       1.0000    0.83810   0.10229   0.82250   Biso      1.000     C          -0.029701           
         C27       1.0000    0.33810   0.39771   0.32250   Biso      1.000     C          -0.029702           
         C28       1.0000    0.33910   0.60257   0.50560   Biso      1.000     C          0.622247  
         C29       1.0000    0.25950   0.48720   0.81560   Biso      1.000     C          -0.149298           
         C30       1.0000    0.33530   0.47093   0.94140   Biso      1.000     C          -0.018961           
         C31       1.0000    0.91360   0.91400   0.44920   Biso      1.000     C          -0.115107           
         C32       1.0000    0.91380   0.58820   0.10240   Biso      1.000     C          -0.028582           
         C33       1.0000    0.91250   0.97850   0.50870   Biso      1.000     C          -0.095429           
         C34       1.0000    0.83530   0.02907   0.44140   Biso      1.000     C          -0.018964           
         C35       1.0000    0.75950   0.01280   0.31560   Biso      1.000     C          -0.149295           
         C36       1.0000    0.94330   0.52490   0.07440   Biso      1.000     C          -0.168078           
         C37       1.0000    0.76010   0.94680   0.25630   Biso      1.000     C          -0.103502           
         C38       1.0000    0.83810   0.89771   0.32250   Biso      1.000     C          -0.029701           
         C39       1.0000    0.98470   0.53390   0.01700   Biso      1.000     C          0.096242  
         C40       1.0000    0.99320   0.60930   0.98890   Biso      1.000     C          -0.144685           
         C41       1.0000    0.66470   0.52907   0.05860   Biso      1.000     C          -0.018964           
         C42       1.0000    0.58750   0.47850   0.99130   Biso      1.000     C          -0.095428           
         C43       1.0000    0.96360   0.67170   0.01970   Biso      1.000     C          0.011919  
         C44       1.0000    0.46360   0.82830   0.51970   Biso      1.000     C          0.011916  
         C45       1.0000    0.49320   0.89070   0.48890   Biso      1.000     C          -0.144682           
         C46       1.0000    0.48470   0.96610   0.51700   Biso      1.000     C          0.09624   
         C47       1.0000    0.74050   0.51280   0.18440   Biso      1.000     C          -0.149295           
         C48       1.0000    0.44330   0.97510   0.57440   Biso      1.000     C          -0.168083           
         C49       1.0000    0.41380   0.91180   0.60240   Biso      1.000     C          -0.028576           
         C50       1.0000    0.33910   0.39743   0.00560   Biso      1.000     C          0.622247  
         C51       1.0000    0.34370   0.66831   0.75490   Biso      1.000     C          0.633765  
         C52       1.0000    0.73990   0.44680   0.24370   Biso      1.000     C          -0.103502           
         C53       1.0000    0.41360   0.58600   0.94920   Biso      1.000     C          -0.115105           
         C54       1.0000    0.03640   0.67170   0.48030   Biso      1.000     C          0.011915  
         C55       1.0000    0.41250   0.52150   0.00870   Biso      1.000     C          -0.095429           
         C56       1.0000    0.66190   0.39771   0.17750   Biso      1.000     C          -0.029701           
         C57       1.0000    0.41380   0.08820   0.10240   Biso      1.000     C          -0.028582           
         C58       1.0000    0.84370   0.83169   0.25490   Biso      1.000     C          0.633765  
         C59       1.0000    0.16470   0.02907   0.05860   Biso      1.000     C          -0.018964           
         C60       1.0000    0.16190   0.10229   0.67750   Biso      1.000     C          -0.029703           
         C61       1.0000    0.66190   0.60229   0.67750   Biso      1.000     C          -0.029703           
         C62       1.0000    0.23990   0.94680   0.24370   Biso      1.000     C          -0.103502           
         C63       1.0000    0.23990   0.05320   0.74370   Biso      1.000     C          -0.103502           
         C64       1.0000    0.53640   0.17170   0.48030   Biso      1.000     C          0.011915  
         C65       1.0000    0.24050   0.01280   0.18440   Biso      1.000     C          -0.149294           
         C66       1.0000    0.55670   0.02490   0.42560   Biso      1.000     C          -0.168078           
         C67       1.0000    0.08750   0.97850   0.99130   Biso      1.000     C          -0.095431           
         C68       1.0000    0.03640   0.32830   0.98030   Biso      1.000     C          0.011915  
         C69       1.0000    0.00680   0.39070   0.01110   Biso      1.000     C          -0.144682           
         C70       1.0000    0.01530   0.46610   0.98300   Biso      1.000     C          0.09624   
         C71       1.0000    0.08640   0.91400   0.05080   Biso      1.000     C          -0.115104           
         C72       1.0000    0.05670   0.47510   0.92560   Biso      1.000     C          -0.168082           
         C73       1.0000    0.24050   0.98720   0.68440   Biso      1.000     C          -0.149298           
         C74       1.0000    0.08620   0.58820   0.39760   Biso      1.000     C          -0.028583           
         C75       1.0000    0.08620   0.41180   0.89760   Biso      1.000     C          -0.028576           
         C76       1.0000    0.16090   0.89743   0.49440   Biso      1.000     C          0.622247  
         C77       1.0000    0.15630   0.16831   0.74510   Biso      1.000     C          0.633765  
         C78       1.0000    0.15630   0.83169   0.24510   Biso      1.000     C          0.633765  
         C79       1.0000    0.16470   0.97093   0.55860   Biso      1.000     C          -0.018961           
         C80       1.0000    0.08640   0.08600   0.55080   Biso      1.000     C          -0.115105           
         C81       1.0000    0.16090   0.10257   0.99440   Biso      1.000     C          0.622247  
         C82       1.0000    0.16190   0.89771   0.17750   Biso      1.000     C          -0.029702           
         C83       1.0000    0.73990   0.55320   0.74370   Biso      1.000     C          -0.103502           
         C84       1.0000    0.05670   0.52490   0.42560   Biso      1.000     C          -0.168078           
         C85       1.0000    0.51530   0.03390   0.48300   Biso      1.000     C          0.096241  
         C86       1.0000    0.50680   0.10930   0.51110   Biso      1.000     C          -0.144682           
         C87       1.0000    0.44330   0.02490   0.07440   Biso      1.000     C          -0.168078           
         C88       1.0000    0.53640   0.82830   0.98030   Biso      1.000     C          0.011915  
         C89       1.0000    0.00680   0.60930   0.51110   Biso      1.000     C          -0.144682           
         C90       1.0000    0.50680   0.89070   0.01110   Biso      1.000     C          -0.144682           
         C91       1.0000    0.51530   0.96610   0.98300   Biso      1.000     C          0.09624   
         C92       1.0000    0.48470   0.03390   0.01700   Biso      1.000     C          0.096242  
         C93       1.0000    0.55670   0.97510   0.92560   Biso      1.000     C          -0.168082           
         C94       1.0000    0.01530   0.53390   0.48300   Biso      1.000     C          0.096241  
         C95       1.0000    0.74050   0.48720   0.68440   Biso      1.000     C          -0.149298           
         C96       1.0000    0.49320   0.10930   0.98890   Biso      1.000     C          -0.144685           
         C97       1.0000    0.58620   0.91180   0.89760   Biso      1.000     C          -0.028576           
         C98       1.0000    0.66090   0.39743   0.49440   Biso      1.000     C          0.622247  
         C99       1.0000    0.65630   0.66831   0.74510   Biso      1.000     C          0.633765  
         C100      1.0000    0.58640   0.58600   0.55080   Biso      1.000     C          -0.115104           
         C101      1.0000    0.46360   0.17170   0.01970   Biso      1.000     C          0.011919  
         C102      1.0000    0.58750   0.52150   0.49130   Biso      1.000     C          -0.095429           
         C103      1.0000    0.66470   0.47093   0.55860   Biso      1.000     C          -0.01896  
         C104      1.0000    0.08750   0.02150   0.49130   Biso      1.000     C          -0.095429           
         H1        1.0000    0.11100   0.58400   0.36300   Biso      1.000     H          0.135955  
         H2        1.0000    0.07200   0.48100   0.41200   Biso      1.000     H          0.141066  
         H3        1.0000    0.97700   0.62200   0.54700   Biso      1.000     H          0.139351  
         H4        1.0000    0.88900   0.58400   0.13700   Biso      1.000     H          0.135955  
         H5        1.0000    0.92800   0.48100   0.08800   Biso      1.000     H          0.141066  
         H6        1.0000    0.38900   0.08400   0.13700   Biso      1.000     H          0.135955  
         H7        1.0000    0.97000   0.72300   0.00900   Biso      1.000     H          0.147497  
         H8        1.0000    0.79500   0.42900   0.34100   Biso      1.000     H          0.069058  
         H9        1.0000    0.04000   0.88000   0.01300   Biso      1.000     H          0.117741  
         H10       1.0000    0.03500   0.99100   0.90700   Biso      1.000     H          0.12284   
         H11       1.0000    0.29000   0.04700   0.22500   Biso      1.000     H          0.107853  
         H12       1.0000    0.29500   0.92900   0.34100   Biso      1.000     H          0.069058  
         H13       1.0000    0.20500   0.42900   0.15900   Biso      1.000     H          0.069058  
         H14       1.0000    0.47000   0.22300   0.00900   Biso      1.000     H          0.147497  
         H15       1.0000    0.21000   0.54700   0.27500   Biso      1.000     H          0.107853  
         H16       1.0000    0.52300   0.12200   0.95300   Biso      1.000     H          0.139351  
         H17       1.0000    0.46500   0.49100   0.59300   Biso      1.000     H          0.12284   
         H18       1.0000    0.46000   0.38000   0.48700   Biso      1.000     H          0.117741  
         H19       1.0000    0.42800   0.98100   0.08800   Biso      1.000     H          0.141066  
         H20       1.0000    0.02300   0.62200   0.95300   Biso      1.000     H          0.139351  
         H21       1.0000    0.46500   0.50900   0.09300   Biso      1.000     H          0.12284   
         H22       1.0000    0.03000   0.72300   0.49100   Biso      1.000     H          0.147497  
         H23       1.0000    0.96500   0.99100   0.59300   Biso      1.000     H          0.12284   
         H24       1.0000    0.61100   0.08400   0.36300   Biso      1.000     H          0.135955  
         H25       1.0000    0.57200   0.98100   0.41200   Biso      1.000     H          0.141066  
         H26       1.0000    0.53000   0.77700   0.99100   Biso      1.000     H          0.147497  
         H27       1.0000    0.47700   0.87800   0.04700   Biso      1.000     H          0.139351  
         H28       1.0000    0.96000   0.88000   0.48700   Biso      1.000     H          0.117741  
         H29       1.0000    0.61100   0.91600   0.86300   Biso      1.000     H          0.135955  
         H30       1.0000    0.54000   0.62000   0.51300   Biso      1.000     H          0.117741  
         H31       1.0000    0.53500   0.50900   0.40700   Biso      1.000     H          0.12284   
         H32       1.0000    0.79000   0.45300   0.72500   Biso      1.000     H          0.107853  
         H33       1.0000    0.70500   0.07100   0.65900   Biso      1.000     H          0.069058  
         H34       1.0000    0.79500   0.57100   0.84100   Biso      1.000     H          0.069058  
         H35       1.0000    0.53000   0.22300   0.49100   Biso      1.000     H          0.147497  
         H36       1.0000    0.03000   0.27700   0.99100   Biso      1.000     H          0.147497  
         H37       1.0000    0.97700   0.37800   0.04700   Biso      1.000     H          0.139351  
         H38       1.0000    0.07200   0.51900   0.91200   Biso      1.000     H          0.141067  
         H39       1.0000    0.11100   0.41600   0.86300   Biso      1.000     H          0.135955  
         H40       1.0000    0.04000   0.12000   0.51300   Biso      1.000     H          0.117741  
         H41       1.0000    0.03500   0.00900   0.40700   Biso      1.000     H          0.12284   
         H42       1.0000    0.29000   0.95300   0.72500   Biso      1.000     H          0.107853  
         H43       1.0000    0.29500   0.07100   0.84100   Biso      1.000     H          0.069058  
         H44       1.0000    0.47700   0.12200   0.54700   Biso      1.000     H          0.139351  
         H45       1.0000    0.71000   0.95300   0.77500   Biso      1.000     H          0.107853  
         H46       1.0000    0.57200   0.01900   0.91200   Biso      1.000     H          0.141067  
         H47       1.0000    0.96000   0.12000   0.98700   Biso      1.000     H          0.117741  
         H48       1.0000    0.38900   0.91600   0.63700   Biso      1.000     H          0.135955  
         H49       1.0000    0.96500   0.00900   0.09300   Biso      1.000     H          0.12284   
         H50       1.0000    0.46000   0.62000   0.98700   Biso      1.000     H          0.117741  
         H51       1.0000    0.47000   0.77700   0.50900   Biso      1.000     H          0.147497  
         H52       1.0000    0.53500   0.49100   0.90700   Biso      1.000     H          0.12284   
         H53       1.0000    0.79000   0.54700   0.22500   Biso      1.000     H          0.107853  
         H54       1.0000    0.70500   0.92900   0.15900   Biso      1.000     H          0.069058  
         H55       1.0000    0.71000   0.04700   0.27500   Biso      1.000     H          0.107853  
         H56       1.0000    0.42800   0.01900   0.58800   Biso      1.000     H          0.141067  
         H57       1.0000    0.21000   0.45300   0.77500   Biso      1.000     H          0.107853  
         H58       1.0000    0.20500   0.57100   0.65900   Biso      1.000     H          0.069058  
         H59       1.0000    0.54000   0.38000   0.01300   Biso      1.000     H          0.117741  
         H60       1.0000    0.97000   0.27700   0.50900   Biso      1.000     H          0.147497  
         H61       1.0000    0.02300   0.37800   0.45300   Biso      1.000     H          0.139351  
         H62       1.0000    0.92800   0.51900   0.58800   Biso      1.000     H          0.141067  
         H63       1.0000    0.88900   0.41600   0.63700   Biso      1.000     H          0.135955  
         H64       1.0000    0.52300   0.87800   0.45300   Biso      1.000     H          0.139351  
         Mg1       1.0000    0.50000   0.30554   0.25000   Biso      1.000     Mg          1.380727  
         Mg2       1.0000    0.25000   0.25000   0.00000   Biso      1.000     Mg          1.357593  
         Mg3       1.0000    0.75000   0.75000   0.00000   Biso      1.000     Mg          1.357593  
         Mg4       1.0000    0.75000   0.25000   0.50000   Biso      1.000     Mg          1.357593  
         Mg5       1.0000    0.00000   0.80554   0.25000   Biso      1.000     Mg          1.380727  
         Mg6       1.0000    0.25000   0.75000   0.50000   Biso      1.000     Mg          1.357593  
         Mg7       1.0000    0.00000   0.19446   0.75000   Biso      1.000     Mg          1.380727  
         Mg8       1.0000    0.50000   0.69446   0.75000   Biso      1.000     Mg          1.380727  
         N1        1.0000    0.07407   0.66010   0.42280   Biso      1.000     N          0.367253  
         N2        1.0000    0.92593   0.66010   0.07720   Biso      1.000     N          0.367253  
         N3        1.0000    0.07407   0.33990   0.92280   Biso      1.000     N          0.367252  
         N4        1.0000    0.57407   0.16010   0.42280   Biso      1.000     N          0.367253  
         N5        1.0000    0.42593   0.16010   0.07720   Biso      1.000     N          0.367253  
         N6        1.0000    0.42593   0.83990   0.57720   Biso      1.000     N          0.367252  
         N7        1.0000    0.92593   0.33990   0.57720   Biso      1.000     N          0.367252  
         N8        1.0000    0.57407   0.83990   0.92280   Biso      1.000     N          0.367252  
         O1        1.0000    0.57536   0.30001   0.18640   Biso      1.000     O          -0.683316           
         O2        1.0000    0.73031   0.31339   0.35510   Biso      1.000     O          -0.644096           
         O3        1.0000    0.58853   0.61185   0.87990   Biso      1.000     O          -0.64148  
         O4        1.0000    0.73045   0.64887   0.06140   Biso      1.000     O          -0.661334           
         O5        1.0000    0.59975   0.22093   0.38930   Biso      1.000     O          -0.598379           
         O6        1.0000    0.07536   0.19999   0.68640   Biso      1.000     O          -0.683316           
         O7        1.0000    0.23045   0.14887   0.06140   Biso      1.000     O          -0.661334           
         O8        1.0000    0.23031   0.18661   0.85510   Biso      1.000     O          -0.644096           
         O9        1.0000    0.08853   0.88815   0.37990   Biso      1.000     O          -0.64148  
         O10       1.0000    0.23045   0.85113   0.56140   Biso      1.000     O          -0.661334           
         O11       1.0000    0.09975   0.27907   0.88930   Biso      1.000     O          -0.598379           
         O12       1.0000    0.57536   0.69999   0.68640   Biso      1.000     O          -0.683316           
         O13       1.0000    0.73031   0.68661   0.85510   Biso      1.000     O          -0.644096           
         O14       1.0000    0.58853   0.38815   0.37990   Biso      1.000     O          -0.64148  
         O15       1.0000    0.73045   0.35113   0.56140   Biso      1.000     O          -0.661334           
         O16       1.0000    0.59975   0.77907   0.88930   Biso      1.000     O          -0.598379           
         O17       1.0000    0.92464   0.19999   0.81360   Biso      1.000     O          -0.683316           
         O18       1.0000    0.76969   0.18661   0.64490   Biso      1.000     O          -0.644096           
         O19       1.0000    0.91147   0.88815   0.12010   Biso      1.000     O          -0.64148  
         O20       1.0000    0.76955   0.85113   0.93860   Biso      1.000     O          -0.661334           
         O21       1.0000    0.90025   0.27907   0.61070   Biso      1.000     O          -0.598379           
         O22       1.0000    0.42464   0.69999   0.81360   Biso      1.000     O          -0.683316           
         O23       1.0000    0.26969   0.68661   0.64490   Biso      1.000     O          -0.644096           
         O24       1.0000    0.41147   0.38815   0.12010   Biso      1.000     O          -0.64148  
         O25       1.0000    0.08853   0.11185   0.87990   Biso      1.000     O          -0.64148  
         O26       1.0000    0.23031   0.81339   0.35510   Biso      1.000     O          -0.644096           
         O27       1.0000    0.07536   0.80001   0.18640   Biso      1.000     O          -0.683316           
         O28       1.0000    0.40025   0.22093   0.11070   Biso      1.000     O          -0.598379           
         O29       1.0000    0.26955   0.64887   0.43860   Biso      1.000     O          -0.661334           
         O30       1.0000    0.41147   0.61185   0.62010   Biso      1.000     O          -0.64148  
         O31       1.0000    0.09975   0.72093   0.38930   Biso      1.000     O          -0.598379           
         O32       1.0000    0.26969   0.31339   0.14490   Biso      1.000     O          -0.644096           
         O33       1.0000    0.90025   0.72093   0.11070   Biso      1.000     O          -0.598379           
         O34       1.0000    0.91147   0.11185   0.62010   Biso      1.000     O          -0.64148  
         O35       1.0000    0.76969   0.81339   0.14490   Biso      1.000     O          -0.644096           
         O36       1.0000    0.92464   0.80001   0.31360   Biso      1.000     O          -0.683316           
         O37       1.0000    0.40025   0.77907   0.61070   Biso      1.000     O          -0.598379           
         O38       1.0000    0.26955   0.35113   0.93860   Biso      1.000     O          -0.661334           
         O39       1.0000    0.42464   0.30001   0.31360   Biso      1.000     O          -0.683316           
         O40       1.0000    0.76955   0.14887   0.43860   Biso      1.000     O          -0.661334 