
##########################################################################
#               Crystallographic Information Format file
#               Produced by PyCifRW module
#
#  This is a CIF file.  CIF has been adopted by the International
#  Union of Crystallography as the standard for data archiving and
#  transmission.
#
#  For information on this file format, follow the CIF links at
#  http://www.iucr.org
##########################################################################

data_image0

_cell_length_a                          12.5669
_cell_length_b                          12.5669
_cell_length_c                          13.5483
_cell_angle_alpha                       65.7086
_cell_angle_beta                        62.3975
_cell_angle_gamma                       93.2666
_symmetry_space_group_name_H-M          'P 1'
_symmetry_int_tables_number             1
loop_
  _symmetry_equiv_pos_as_xyz
         'x, y, z' 
loop_
  _atom_site_label
  _atom_site_occupancy
  _atom_site_fract_x
  _atom_site_fract_y
  _atom_site_fract_z
  _atom_site_thermal_displace_type
  _atom_site_B_iso_or_equiv
  _atom_site_type_symbol
  _atom_site_charge
         C1        1.0000    0.05839   0.29057   0.75490   Biso      1.000     C          -0.127798           
         C2        1.0000    0.62009   0.00047   0.55030   Biso      1.000     C          -0.108    
         C3        1.0000    0.06743   0.77373   0.18640   Biso      1.000     C          -0.135138           
         C4        1.0000    0.53987   0.74617   0.68640   Biso      1.000     C          -0.13302  
         C5        1.0000    0.27631   0.50119   0.39800   Biso      1.000     C          -0.012589           
         C6        1.0000    0.57479   0.80627   0.55918   Biso      1.000     C          -0.026032999999999997         
         C7        1.0000    0.45453   0.18671   0.25490   Biso      1.000     C          -0.13021  
         C8        1.0000    0.94923   0.82961   0.05030   Biso      1.000     C          -0.10575699999999999          
         C9        1.0000    0.86545   0.13397   0.94082   Biso      1.000     C          -0.024556           
         C10       1.0000    0.42239   0.98739   0.25444   Biso      1.000     C          0.635616  
         C11       1.0000    0.11849   0.26189   0.82204   Biso      1.000     C          -0.02125  
         C12       1.0000    0.92463   0.10735   0.00920   Biso      1.000     C          -0.10431199999999999          
         C13       1.0000    0.61655   0.93383   0.49080   Biso      1.000     C          -0.101332           
         C14       1.0000    0.22794   0.63414   0.48130   Biso      1.000     C          0.02733   
         C15       1.0000    0.56276   0.73612   0.49498   Biso      1.000     C          0.6193350000000001  
         C16       1.0000    0.49825   0.45041   0.98382   Biso      1.000     C          0.087325  
         C17       1.0000    0.10496   0.60192   0.51200   Biso      1.000     C          -0.15595  
         C18       1.0000    0.41607   0.05947   0.32204   Biso      1.000     C          -0.021012           
         C19       1.0000    0.61392   0.61696   0.98800   Biso      1.000     C          -0.15370999999999999          
         C20       1.0000    0.60081   0.32569   0.89800   Biso      1.000     C          -0.013522999999999999         
         C21       1.0000    0.72369   0.49881   0.60200   Biso      1.000     C          -0.012589           
         C22       1.0000    0.50175   0.54959   0.01618   Biso      1.000     C          0.087325  
         C23       1.0000    0.46013   0.25383   0.31360   Biso      1.000     C          -0.13302  
         C24       1.0000    0.13455   0.86603   0.05918   Biso      1.000     C          -0.024556           
         C25       1.0000    0.06577   0.51793   0.48382   Biso      1.000     C          0.08848400000000001           
         C26       1.0000    0.60695   0.41893   0.92580   Biso      1.000     C          -0.16409100000000001          
         C27       1.0000    0.73110   0.05774   0.00502   Biso      1.000     C          0.619066  
         C28       1.0000    0.15527   0.46725   0.42580   Biso      1.000     C          -0.165938           
         C29       1.0000    0.61544   0.70924   0.01870   Biso      1.000     C          0.023239  
         C30       1.0000    0.38456   0.29076   0.98130   Biso      1.000     C          0.023237999999999998          
         C31       1.0000    0.93423   0.48207   0.51618   Biso      1.000     C          0.08848400000000001           
         C32       1.0000    0.94161   0.70943   0.24510   Biso      1.000     C          -0.127797           
         C33       1.0000    0.39305   0.58107   0.07420   Biso      1.000     C          -0.164095           
         C34       1.0000    0.89504   0.39808   0.48800   Biso      1.000     C          -0.155951           
         C35       1.0000    0.57761   0.01261   0.74556   Biso      1.000     C          0.635616  
         C36       1.0000    0.39919   0.67431   0.10200   Biso      1.000     C          -0.013519           
         C37       1.0000    0.93257   0.22627   0.81360   Biso      1.000     C          -0.13513699999999998          
         C38       1.0000    0.37991   0.99953   0.44970   Biso      1.000     C          -0.108    
         C39       1.0000    0.25817   0.32317   0.75444   Biso      1.000     C          0.634736  
         C40       1.0000    0.88151   0.73811   0.17796   Biso      1.000     C          -0.02125  
         C41       1.0000    0.38345   0.06617   0.50920   Biso      1.000     C          -0.10133500000000001          
         C42       1.0000    0.74183   0.67683   0.24556   Biso      1.000     C          0.634736  
         C43       1.0000    0.05077   0.17039   0.94970   Biso      1.000     C          -0.10575699999999999          
         C44       1.0000    0.43724   0.26388   0.50502   Biso      1.000     C          0.6193350000000001  
         C45       1.0000    0.38608   0.38304   0.01200   Biso      1.000     C          -0.15370899999999998          
         C46       1.0000    0.58393   0.94053   0.67796   Biso      1.000     C          -0.021012           
         C47       1.0000    0.42521   0.19373   0.44082   Biso      1.000     C          -0.026031           
         C48       1.0000    0.54547   0.81329   0.74510   Biso      1.000     C          -0.13021  
         C49       1.0000    0.26890   0.94226   0.99498   Biso      1.000     C          0.619066  
         C50       1.0000    0.77206   0.36586   0.51870   Biso      1.000     C          0.027331  
         C51       1.0000    0.84473   0.53275   0.57420   Biso      1.000     C          -0.165938           
         C52       1.0000    0.07537   0.89265   0.99080   Biso      1.000     C          -0.10431099999999999          
         H1        1.0000    0.30750   0.24490   0.00180   Biso      1.000     H          0.149974  
         H2        1.0000    0.09080   0.15060   0.99680   Biso      1.000     H          0.11346300000000001           
         H3        1.0000    0.47710   0.22850   0.16820   Biso      1.000     H          0.086802  
         H4        1.0000    0.68520   0.46200   0.90560   Biso      1.000     H          0.135785  
         H5        1.0000    0.12130   0.95430   0.90300   Biso      1.000     H          0.12527   
         H6        1.0000    0.69010   0.59940   0.94730   Biso      1.000     H          0.1369    
         H7        1.0000    0.95330   0.36260   0.44730   Biso      1.000     H          0.137228  
         H8        1.0000    0.51200   0.65910   0.73370   Biso      1.000     H          0.101503  
         H9        1.0000    0.32540   0.69650   0.13910   Biso      1.000     H          0.135274  
         H10       1.0000    0.90920   0.84940   0.00320   Biso      1.000     H          0.11346400000000001           
         H11       1.0000    0.10720   0.75430   0.23370   Biso      1.000     H          0.101735  
         H12       1.0000    0.35730   0.02430   0.59700   Biso      1.000     H          0.124602  
         H13       1.0000    0.66440   0.53550   0.63910   Biso      1.000     H          0.136121  
         H14       1.0000    0.33560   0.46450   0.36090   Biso      1.000     H          0.136121  
         H15       1.0000    0.64270   0.97570   0.40300   Biso      1.000     H          0.124602  
         H16       1.0000    0.31480   0.53800   0.09440   Biso      1.000     H          0.135785  
         H17       1.0000    0.13240   0.40920   0.40560   Biso      1.000     H          0.136147  
         H18       1.0000    0.86760   0.59080   0.59440   Biso      1.000     H          0.136147  
         H19       1.0000    0.87870   0.04570   0.09700   Biso      1.000     H          0.12527   
         H20       1.0000    0.64740   0.08760   0.50320   Biso      1.000     H          0.11451300000000002           
         H21       1.0000    0.74670   0.30930   0.49820   Biso      1.000     H          0.149307  
         H22       1.0000    0.35260   0.91240   0.49680   Biso      1.000     H          0.11451300000000002           
         H23       1.0000    0.69250   0.75510   0.99820   Biso      1.000     H          0.149974  
         H24       1.0000    0.89280   0.24570   0.76630   Biso      1.000     H          0.101735  
         H25       1.0000    0.04670   0.63740   0.55270   Biso      1.000     H          0.137229  
         H26       1.0000    0.48800   0.34090   0.26630   Biso      1.000     H          0.101503  
         H27       1.0000    0.52290   0.77150   0.83180   Biso      1.000     H          0.086802  
         H28       1.0000    0.10330   0.35470   0.66820   Biso      1.000     H          0.086494  
         H29       1.0000    0.30990   0.40060   0.05270   Biso      1.000     H          0.1369    
         H30       1.0000    0.67460   0.30350   0.86090   Biso      1.000     H          0.135274  
         H31       1.0000    0.25330   0.69070   0.50180   Biso      1.000     H          0.149307  
         H32       1.0000    0.89670   0.64530   0.33180   Biso      1.000     H          0.086494  
         Mg1       1.0000    0.55532   0.80532   0.25000   Biso      1.000     Mg          1.3800780000000001  
         Mg2       1.0000    0.50000   0.50000   0.50000   Biso      1.000     Mg          1.358582  
         Mg3       1.0000    0.50000   0.00000   0.00000   Biso      1.000     Mg          1.357689  
         Mg4       1.0000    0.44468   0.19468   0.75000   Biso      1.000     Mg          1.3800780000000001  
         N1        1.0000    0.50823   0.73411   0.07736   Biso      1.000     N          0.361109  
         N2        1.0000    0.49177   0.26589   0.92264   Biso      1.000     N          0.361109  
         N3        1.0000    0.68853   0.41441   0.57736   Biso      1.000     N          0.358014  
         N4        1.0000    0.31147   0.58559   0.42264   Biso      1.000     N          0.358014  
         O1        1.0000    0.68942   0.72560   0.18586   Biso      1.000     O          -0.687198           
         O2        1.0000    0.67953   0.97604   0.11975   Biso      1.000     O          -0.641005           
         O3        1.0000    0.56883   0.37947   0.61084   Biso      1.000     O          -0.594094           
         O4        1.0000    0.50969   0.82033   0.11084   Biso      1.000     O          -0.594202           
         O5        1.0000    0.49031   0.17967   0.88916   Biso      1.000     O          -0.594202           
         O6        1.0000    0.59579   0.79928   0.38025   Biso      1.000     O          -0.641515           
         O7        1.0000    0.41146   0.87528   0.31414   Biso      1.000     O          -0.6869569999999999           
         O8        1.0000    0.40421   0.20072   0.61975   Biso      1.000     O          -0.641515           
         O9        1.0000    0.32047   0.02396   0.88025   Biso      1.000     O          -0.641005           
         O10       1.0000    0.68795   0.58475   0.35542   Biso      1.000     O          -0.645103           
         O11       1.0000    0.44017   0.04337   0.14458   Biso      1.000     O          -0.645846           
         O12       1.0000    0.31205   0.41525   0.64458   Biso      1.000     O          -0.645103           
         O13       1.0000    0.31058   0.27440   0.81414   Biso      1.000     O          -0.687198           
         O14       1.0000    0.55983   0.95663   0.85542   Biso      1.000     O          -0.645846           
         O15       1.0000    0.43117   0.62053   0.38916   Biso      1.000     O          -0.594094           
         O16       1.0000    0.31717   0.91876   0.06215   Biso      1.000     O          -0.66161  
         O17       1.0000    0.68283   0.08124   0.93785   Biso      1.000     O          -0.661609           
         O18       1.0000    0.48091   0.37932   0.43785   Biso      1.000     O          -0.661836           
         O19       1.0000    0.58854   0.12472   0.68586   Biso      1.000     O          -0.6869569999999999           
         O20       1.0000    0.51909   0.62068   0.56215   Biso      1.000     O          -0.661836 