
##########################################################################
#               Crystallographic Information Format file
#               Produced by PyCifRW module
#
#  This is a CIF file.  CIF has been adopted by the International
#  Union of Crystallography as the standard for data archiving and
#  transmission.
#
#  For information on this file format, follow the CIF links at
#  http://www.iucr.org
##########################################################################

data_image0

_cell_length_a                          18.0541
_cell_length_b                          17.2527
_cell_length_c                          13.4128
_cell_angle_alpha                       90
_cell_angle_beta                        129.274
_cell_angle_gamma                       90
_symmetry_space_group_name_H-M          'P 1'
_symmetry_int_tables_number             1
loop_
  _symmetry_equiv_pos_as_xyz
         'x, y, z' 
loop_
  _atom_site_label
  _atom_site_occupancy
  _atom_site_fract_x
  _atom_site_fract_y
  _atom_site_fract_z
  _atom_site_thermal_displace_type
  _atom_site_B_iso_or_equiv
  _atom_site_type_symbol
  _atom_site_charge
         C1        1.0000    0.34400   0.16853   0.75520   Biso      1.000     C          0.636789  
         C2        1.0000    0.41380   0.91430   0.45030   Biso      1.000     C          -0.11873  
         C3        1.0000    0.33850   0.89827   0.32280   Biso      1.000     C          -0.01425  
         C4        1.0000    0.41380   0.08570   0.95030   Biso      1.000     C          -0.11873  
         C5        1.0000    0.73900   0.05210   0.74390   Biso      1.000     C          -0.133774           
         C6        1.0000    0.65600   0.16853   0.74480   Biso      1.000     C          0.636789  
         C7        1.0000    0.66070   0.89658   0.49480   Biso      1.000     C          0.625517  
         C8        1.0000    0.53670   0.32860   0.98150   Biso      1.000     C          0.018281  
         C9        1.0000    0.41250   0.02080   0.00950   Biso      1.000     C          -0.089676           
         C10       1.0000    0.91330   0.08861   0.10290   Biso      1.000     C          -0.01952  
         C11       1.0000    0.94280   0.02505   0.07470   Biso      1.000     C          -0.163583           
         C12       1.0000    0.98450   0.03399   0.01650   Biso      1.000     C          0.09226   
         C13       1.0000    0.33570   0.97024   0.94160   Biso      1.000     C          -0.033058           
         C14       1.0000    0.99290   0.10880   0.98790   Biso      1.000     C          -0.142489           
         C15       1.0000    0.25990   0.98640   0.81430   Biso      1.000     C          -0.129814           
         C16       1.0000    0.96330   0.17140   0.01850   Biso      1.000     C          0.018284  
         C17       1.0000    0.83930   0.60342   0.50520   Biso      1.000     C          0.625517  
         C18       1.0000    0.84400   0.33147   0.25520   Biso      1.000     C          0.636789  
         C19       1.0000    0.76100   0.44790   0.25610   Biso      1.000     C          -0.133774           
         C20       1.0000    0.26100   0.05210   0.75610   Biso      1.000     C          -0.133773           
         C21       1.0000    0.75990   0.51360   0.31430   Biso      1.000     C          -0.129814           
         C22       1.0000    0.83570   0.52976   0.44160   Biso      1.000     C          -0.033057           
         C23       1.0000    0.91250   0.47920   0.50950   Biso      1.000     C          -0.089678           
         C24       1.0000    0.83930   0.39658   0.00520   Biso      1.000     C          0.625517  
         C25       1.0000    0.91380   0.41430   0.45030   Biso      1.000     C          -0.118729           
         C26       1.0000    0.83850   0.39827   0.32280   Biso      1.000     C          -0.01425  
         C27       1.0000    0.33850   0.10173   0.82280   Biso      1.000     C          -0.01425  
         C28       1.0000    0.33930   0.89658   0.00520   Biso      1.000     C          0.625517  
         C29       1.0000    0.41250   0.97920   0.50950   Biso      1.000     C          -0.089676           
         C30       1.0000    0.33570   0.02976   0.44160   Biso      1.000     C          -0.033058           
         C31       1.0000    0.76100   0.55210   0.75610   Biso      1.000     C          -0.133774           
         C32       1.0000    0.96330   0.82860   0.51850   Biso      1.000     C          0.018281  
         C33       1.0000    0.75990   0.48640   0.81430   Biso      1.000     C          -0.129813           
         C34       1.0000    0.83570   0.47024   0.94160   Biso      1.000     C          -0.033057           
         C35       1.0000    0.91250   0.52080   0.00950   Biso      1.000     C          -0.089678           
         C36       1.0000    0.99290   0.89120   0.48790   Biso      1.000     C          -0.142488           
         C37       1.0000    0.91380   0.58570   0.95030   Biso      1.000     C          -0.118729           
         C38       1.0000    0.83850   0.60173   0.82280   Biso      1.000     C          -0.01425  
         C39       1.0000    0.98450   0.96601   0.51650   Biso      1.000     C          0.092262  
         C40       1.0000    0.94280   0.97495   0.57470   Biso      1.000     C          -0.163587           
         C41       1.0000    0.66430   0.97024   0.55840   Biso      1.000     C          -0.033058           
         C42       1.0000    0.74010   0.98640   0.68570   Biso      1.000     C          -0.129812           
         C43       1.0000    0.91330   0.91139   0.60290   Biso      1.000     C          -0.019517           
         C44       1.0000    0.41330   0.58861   0.10290   Biso      1.000     C          -0.01952  
         C45       1.0000    0.44280   0.52505   0.07470   Biso      1.000     C          -0.163583           
         C46       1.0000    0.48450   0.53399   0.01650   Biso      1.000     C          0.09226   
         C47       1.0000    0.58750   0.02080   0.49050   Biso      1.000     C          -0.089678           
         C48       1.0000    0.49290   0.60880   0.98790   Biso      1.000     C          -0.142489           
         C49       1.0000    0.46330   0.67140   0.01850   Biso      1.000     C          0.018284  
         C50       1.0000    0.33930   0.10342   0.50520   Biso      1.000     C          0.625517  
         C51       1.0000    0.34400   0.83147   0.25520   Biso      1.000     C          0.636789  
         C52       1.0000    0.58620   0.08570   0.54970   Biso      1.000     C          -0.118729           
         C53       1.0000    0.26100   0.94790   0.25610   Biso      1.000     C          -0.133775           
         C54       1.0000    0.08670   0.91139   0.89710   Biso      1.000     C          -0.01952  
         C55       1.0000    0.25990   0.01360   0.31430   Biso      1.000     C          -0.129812           
         C56       1.0000    0.66150   0.10173   0.67720   Biso      1.000     C          -0.01425  
         C57       1.0000    0.46330   0.32860   0.51850   Biso      1.000     C          0.018281  
         C58       1.0000    0.84400   0.66853   0.75520   Biso      1.000     C          0.636789  
         C59       1.0000    0.16430   0.47024   0.55840   Biso      1.000     C          -0.033058           
         C60       1.0000    0.16150   0.39827   0.17720   Biso      1.000     C          -0.014252           
         C61       1.0000    0.66150   0.89827   0.17720   Biso      1.000     C          -0.014252           
         C62       1.0000    0.08620   0.58570   0.54970   Biso      1.000     C          -0.11873  
         C63       1.0000    0.08620   0.41430   0.04970   Biso      1.000     C          -0.118728           
         C64       1.0000    0.58670   0.41139   0.89710   Biso      1.000     C          -0.01952  
         C65       1.0000    0.08750   0.52080   0.49050   Biso      1.000     C          -0.089676           
         C66       1.0000    0.50710   0.39120   0.01210   Biso      1.000     C          -0.142488           
         C67       1.0000    0.24010   0.48640   0.68570   Biso      1.000     C          -0.129814           
         C68       1.0000    0.08670   0.08861   0.39710   Biso      1.000     C          -0.01952  
         C69       1.0000    0.05720   0.02505   0.42530   Biso      1.000     C          -0.163583           
         C70       1.0000    0.01550   0.03399   0.48350   Biso      1.000     C          0.092259  
         C71       1.0000    0.23900   0.55210   0.74390   Biso      1.000     C          -0.133773           
         C72       1.0000    0.00710   0.10880   0.51210   Biso      1.000     C          -0.142489           
         C73       1.0000    0.08750   0.47920   0.99050   Biso      1.000     C          -0.089676           
         C74       1.0000    0.03670   0.82860   0.98150   Biso      1.000     C          0.018281  
         C75       1.0000    0.03670   0.17140   0.48150   Biso      1.000     C          0.018284  
         C76       1.0000    0.16070   0.60342   0.99480   Biso      1.000     C          0.625517  
         C77       1.0000    0.15600   0.33147   0.24480   Biso      1.000     C          0.636789  
         C78       1.0000    0.15600   0.66853   0.74480   Biso      1.000     C          0.636789  
         C79       1.0000    0.16430   0.52976   0.05840   Biso      1.000     C          -0.033058           
         C80       1.0000    0.23900   0.44790   0.24390   Biso      1.000     C          -0.133774           
         C81       1.0000    0.16070   0.39658   0.49480   Biso      1.000     C          0.625517  
         C82       1.0000    0.16150   0.60173   0.67720   Biso      1.000     C          -0.01425  
         C83       1.0000    0.58620   0.91430   0.04970   Biso      1.000     C          -0.118728           
         C84       1.0000    0.00710   0.89120   0.01210   Biso      1.000     C          -0.142488           
         C85       1.0000    0.51550   0.46601   0.98350   Biso      1.000     C          0.092262  
         C86       1.0000    0.55720   0.47495   0.92530   Biso      1.000     C          -0.163584           
         C87       1.0000    0.49290   0.39120   0.48790   Biso      1.000     C          -0.142488           
         C88       1.0000    0.58670   0.58861   0.39710   Biso      1.000     C          -0.01952  
         C89       1.0000    0.05720   0.97495   0.92530   Biso      1.000     C          -0.163584           
         C90       1.0000    0.55720   0.52505   0.42530   Biso      1.000     C          -0.163583           
         C91       1.0000    0.51550   0.53399   0.48350   Biso      1.000     C          0.092259  
         C92       1.0000    0.48450   0.46601   0.51650   Biso      1.000     C          0.092262  
         C93       1.0000    0.50710   0.60880   0.51210   Biso      1.000     C          -0.142489           
         C94       1.0000    0.01550   0.96601   0.98350   Biso      1.000     C          0.092261  
         C95       1.0000    0.58750   0.97920   0.99050   Biso      1.000     C          -0.089677           
         C96       1.0000    0.44280   0.47495   0.57470   Biso      1.000     C          -0.163587           
         C97       1.0000    0.53670   0.67140   0.48150   Biso      1.000     C          0.018284  
         C98       1.0000    0.66070   0.10342   0.99480   Biso      1.000     C          0.625517  
         C99       1.0000    0.65600   0.83147   0.24480   Biso      1.000     C          0.636789  
         C100      1.0000    0.73900   0.94790   0.24390   Biso      1.000     C          -0.133774           
         C101      1.0000    0.41330   0.41139   0.60290   Biso      1.000     C          -0.019517           
         C102      1.0000    0.74010   0.01360   0.18570   Biso      1.000     C          -0.129814           
         C103      1.0000    0.66430   0.02976   0.05840   Biso      1.000     C          -0.033057           
         C104      1.0000    0.24010   0.51360   0.18570   Biso      1.000     C          -0.129812           
         H1        1.0000    0.03500   0.77600   0.99600   Biso      1.000     H          0.147318  
         H2        1.0000    0.97900   0.88000   0.05300   Biso      1.000     H          0.134974  
         H3        1.0000    0.06900   0.02200   0.90400   Biso      1.000     H          0.136244  
         H4        1.0000    0.96500   0.77600   0.50400   Biso      1.000     H          0.147318  
         H5        1.0000    0.02100   0.88000   0.44700   Biso      1.000     H          0.134974  
         H6        1.0000    0.46500   0.27600   0.50400   Biso      1.000     H          0.147318  
         H7        1.0000    0.88100   0.91400   0.63600   Biso      1.000     H          0.133237  
         H8        1.0000    0.53700   0.11800   0.51000   Biso      1.000     H          0.117     
         H9        1.0000    0.28600   0.55700   0.83300   Biso      1.000     H          0.090646  
         H10       1.0000    0.29100   0.44800   0.73000   Biso      1.000     H          0.099275  
         H11       1.0000    0.03700   0.50700   0.40300   Biso      1.000     H          0.12032   
         H12       1.0000    0.03700   0.61800   0.51000   Biso      1.000     H          0.117     
         H13       1.0000    0.46300   0.11800   0.99000   Biso      1.000     H          0.117     
         H14       1.0000    0.38100   0.41400   0.63600   Biso      1.000     H          0.133237  
         H15       1.0000    0.46300   0.00700   0.09700   Biso      1.000     H          0.12032   
         H16       1.0000    0.43100   0.52200   0.59600   Biso      1.000     H          0.136244  
         H17       1.0000    0.20900   0.94800   0.77000   Biso      1.000     H          0.099275  
         H18       1.0000    0.21400   0.05700   0.66700   Biso      1.000     H          0.090646  
         H19       1.0000    0.52100   0.38000   0.44700   Biso      1.000     H          0.134974  
         H20       1.0000    0.93100   0.02200   0.59600   Biso      1.000     H          0.136244  
         H21       1.0000    0.20900   0.05200   0.27000   Biso      1.000     H          0.099275  
         H22       1.0000    0.11900   0.91400   0.86400   Biso      1.000     H          0.133237  
         H23       1.0000    0.70900   0.44800   0.77000   Biso      1.000     H          0.099275  
         H24       1.0000    0.53500   0.27600   0.99600   Biso      1.000     H          0.147318  
         H25       1.0000    0.47900   0.38000   0.05300   Biso      1.000     H          0.134974  
         H26       1.0000    0.61900   0.58600   0.36400   Biso      1.000     H          0.133237  
         H27       1.0000    0.56900   0.47800   0.40400   Biso      1.000     H          0.136244  
         H28       1.0000    0.71400   0.55700   0.66700   Biso      1.000     H          0.090646  
         H29       1.0000    0.53500   0.72400   0.49600   Biso      1.000     H          0.147318  
         H30       1.0000    0.78600   0.94300   0.33300   Biso      1.000     H          0.090646  
         H31       1.0000    0.79100   0.05200   0.23000   Biso      1.000     H          0.099275  
         H32       1.0000    0.53700   0.99300   0.90300   Biso      1.000     H          0.12032   
         H33       1.0000    0.96300   0.38200   0.49000   Biso      1.000     H          0.117     
         H34       1.0000    0.53700   0.88200   0.01000   Biso      1.000     H          0.117     
         H35       1.0000    0.61900   0.41400   0.86400   Biso      1.000     H          0.133237  
         H36       1.0000    0.11900   0.08600   0.36400   Biso      1.000     H          0.133237  
         H37       1.0000    0.06900   0.97800   0.40400   Biso      1.000     H          0.136244  
         H38       1.0000    0.97900   0.12000   0.55300   Biso      1.000     H          0.134975  
         H39       1.0000    0.03500   0.22400   0.49600   Biso      1.000     H          0.147318  
         H40       1.0000    0.28600   0.44300   0.33300   Biso      1.000     H          0.090646  
         H41       1.0000    0.29100   0.55200   0.23000   Biso      1.000     H          0.099275  
         H42       1.0000    0.03700   0.49300   0.90300   Biso      1.000     H          0.12032   
         H43       1.0000    0.03700   0.38200   0.01000   Biso      1.000     H          0.117     
         H44       1.0000    0.56900   0.52200   0.90400   Biso      1.000     H          0.136244  
         H45       1.0000    0.96300   0.49300   0.59700   Biso      1.000     H          0.12032   
         H46       1.0000    0.47900   0.62000   0.55300   Biso      1.000     H          0.134974  
         H47       1.0000    0.71400   0.44300   0.16700   Biso      1.000     H          0.090646  
         H48       1.0000    0.46500   0.72400   0.00400   Biso      1.000     H          0.147318  
         H49       1.0000    0.70900   0.55200   0.27000   Biso      1.000     H          0.099275  
         H50       1.0000    0.21400   0.94300   0.16700   Biso      1.000     H          0.090646  
         H51       1.0000    0.38100   0.58600   0.13600   Biso      1.000     H          0.133237  
         H52       1.0000    0.79100   0.94800   0.73000   Biso      1.000     H          0.099275  
         H53       1.0000    0.53700   0.00700   0.40300   Biso      1.000     H          0.12032   
         H54       1.0000    0.96300   0.61800   0.99000   Biso      1.000     H          0.117     
         H55       1.0000    0.96300   0.50700   0.09700   Biso      1.000     H          0.12032   
         H56       1.0000    0.52100   0.62000   0.94700   Biso      1.000     H          0.134974  
         H57       1.0000    0.46300   0.99300   0.59700   Biso      1.000     H          0.12032   
         H58       1.0000    0.46300   0.88200   0.49000   Biso      1.000     H          0.117     
         H59       1.0000    0.78600   0.05700   0.83300   Biso      1.000     H          0.090646  
         H60       1.0000    0.88100   0.08600   0.13600   Biso      1.000     H          0.133237  
         H61       1.0000    0.93100   0.97800   0.09600   Biso      1.000     H          0.136244  
         H62       1.0000    0.02100   0.12000   0.94700   Biso      1.000     H          0.134975  
         H63       1.0000    0.96500   0.22400   0.00400   Biso      1.000     H          0.147318  
         H64       1.0000    0.43100   0.47800   0.09600   Biso      1.000     H          0.136244  
         Mg1       1.0000    0.50000   0.19501   0.75000   Biso      1.000     Mg          1.379917  
         Mg2       1.0000    0.25000   0.25000   0.50000   Biso      1.000     Mg          1.3556    
         Mg3       1.0000    0.75000   0.75000   0.50000   Biso      1.000     Mg          1.3556    
         Mg4       1.0000    0.75000   0.25000   0.00000   Biso      1.000     Mg          1.3556    
         Mg5       1.0000    0.00000   0.69501   0.75000   Biso      1.000     Mg          1.379917  
         Mg6       1.0000    0.25000   0.75000   0.00000   Biso      1.000     Mg          1.3556    
         Mg7       1.0000    0.00000   0.30499   0.25000   Biso      1.000     Mg          1.379917  
         Mg8       1.0000    0.50000   0.80499   0.25000   Biso      1.000     Mg          1.379917  
         N1        1.0000    0.07411   0.83980   0.92280   Biso      1.000     N          0.359319  
         N2        1.0000    0.92589   0.83980   0.57720   Biso      1.000     N          0.359319  
         N3        1.0000    0.07411   0.16020   0.42280   Biso      1.000     N          0.359319  
         N4        1.0000    0.57411   0.33980   0.92280   Biso      1.000     N          0.359319  
         N5        1.0000    0.42589   0.33980   0.57720   Biso      1.000     N          0.359319  
         N6        1.0000    0.42589   0.66020   0.07720   Biso      1.000     N          0.359319  
         N7        1.0000    0.92589   0.16020   0.07720   Biso      1.000     N          0.359319  
         N8        1.0000    0.57411   0.66020   0.42280   Biso      1.000     N          0.359319  
         O1        1.0000    0.57549   0.20043   0.68533   Biso      1.000     O          -0.685763           
         O2        1.0000    0.72992   0.18649   0.85459   Biso      1.000     O          -0.643934           
         O3        1.0000    0.58841   0.88743   0.37990   Biso      1.000     O          -0.642652           
         O4        1.0000    0.73029   0.85061   0.56227   Biso      1.000     O          -0.662005           
         O5        1.0000    0.59995   0.27912   0.88967   Biso      1.000     O          -0.599694           
         O6        1.0000    0.07549   0.29957   0.18533   Biso      1.000     O          -0.685764           
         O7        1.0000    0.23029   0.35061   0.56227   Biso      1.000     O          -0.662004           
         O8        1.0000    0.22992   0.31351   0.35459   Biso      1.000     O          -0.643934           
         O9        1.0000    0.08841   0.61257   0.87990   Biso      1.000     O          -0.642652           
         O10       1.0000    0.23029   0.64939   0.06227   Biso      1.000     O          -0.662004           
         O11       1.0000    0.09995   0.22088   0.38967   Biso      1.000     O          -0.599694           
         O12       1.0000    0.57549   0.79957   0.18533   Biso      1.000     O          -0.685764           
         O13       1.0000    0.72992   0.81351   0.35459   Biso      1.000     O          -0.643934           
         O14       1.0000    0.58841   0.11257   0.87990   Biso      1.000     O          -0.642652           
         O15       1.0000    0.73029   0.14939   0.06227   Biso      1.000     O          -0.662004           
         O16       1.0000    0.59995   0.72088   0.38967   Biso      1.000     O          -0.599694           
         O17       1.0000    0.92451   0.29957   0.31467   Biso      1.000     O          -0.685764           
         O18       1.0000    0.77008   0.31351   0.14541   Biso      1.000     O          -0.643934           
         O19       1.0000    0.91159   0.61257   0.62010   Biso      1.000     O          -0.642652           
         O20       1.0000    0.76971   0.64939   0.43773   Biso      1.000     O          -0.662004           
         O21       1.0000    0.90005   0.22088   0.11033   Biso      1.000     O          -0.599694           
         O22       1.0000    0.42451   0.79957   0.31467   Biso      1.000     O          -0.685763           
         O23       1.0000    0.27008   0.81351   0.14541   Biso      1.000     O          -0.643934           
         O24       1.0000    0.41159   0.11257   0.62010   Biso      1.000     O          -0.642652           
         O25       1.0000    0.08841   0.38743   0.37990   Biso      1.000     O          -0.642652           
         O26       1.0000    0.22992   0.68649   0.85459   Biso      1.000     O          -0.643934           
         O27       1.0000    0.07549   0.70043   0.68533   Biso      1.000     O          -0.685763           
         O28       1.0000    0.40005   0.27912   0.61033   Biso      1.000     O          -0.599694           
         O29       1.0000    0.26971   0.85061   0.93773   Biso      1.000     O          -0.662004           
         O30       1.0000    0.41159   0.88743   0.12010   Biso      1.000     O          -0.642652           
         O31       1.0000    0.09995   0.77912   0.88967   Biso      1.000     O          -0.599694           
         O32       1.0000    0.27008   0.18649   0.64541   Biso      1.000     O          -0.643934           
         O33       1.0000    0.90005   0.77912   0.61033   Biso      1.000     O          -0.599694           
         O34       1.0000    0.91159   0.38743   0.12010   Biso      1.000     O          -0.642652           
         O35       1.0000    0.77008   0.68649   0.64541   Biso      1.000     O          -0.643934           
         O36       1.0000    0.92451   0.70043   0.81467   Biso      1.000     O          -0.685763           
         O37       1.0000    0.40005   0.72088   0.11033   Biso      1.000     O          -0.599694           
         O38       1.0000    0.26971   0.14939   0.43773   Biso      1.000     O          -0.662004           
         O39       1.0000    0.42451   0.20043   0.81467   Biso      1.000     O          -0.685763           
         O40       1.0000    0.76971   0.35061   0.93773   Biso      1.000     O          -0.662004 