
##########################################################################
#               Crystallographic Information Format file
#               Produced by PyCifRW module
#
#  This is a CIF file.  CIF has been adopted by the International
#  Union of Crystallography as the standard for data archiving and
#  transmission.
#
#  For information on this file format, follow the CIF links at
#  http://www.iucr.org
##########################################################################

data_image0

_cell_length_a                          18.119
_cell_length_b                          17.2294
_cell_length_c                          13.478
_cell_angle_alpha                       90
_cell_angle_beta                        129.38
_cell_angle_gamma                       90
_symmetry_space_group_name_H-M          'P 1'
_symmetry_int_tables_number             1
loop_
  _symmetry_equiv_pos_as_xyz
         'x, y, z' 
loop_
  _atom_site_label
  _atom_site_occupancy
  _atom_site_fract_x
  _atom_site_fract_y
  _atom_site_fract_z
  _atom_site_thermal_displace_type
  _atom_site_B_iso_or_equiv
  _atom_site_type_symbol
  _atom_site_charge
         C1        1.0000    0.34360   0.33178   0.75490   Biso      1.000     C          0.636576  
         C2        1.0000    0.26040   0.55230   0.25600   Biso      1.000     C          -0.110621           
         C3        1.0000    0.33830   0.60198   0.32280   Biso      1.000     C          -0.03228  
         C4        1.0000    0.26040   0.44770   0.75600   Biso      1.000     C          -0.110621           
         C5        1.0000    0.58610   0.41420   0.55050   Biso      1.000     C          -0.097021           
         C6        1.0000    0.65640   0.33178   0.74510   Biso      1.000     C          0.636576  
         C7        1.0000    0.66100   0.60270   0.49470   Biso      1.000     C          0.621138  
         C8        1.0000    0.58620   0.08870   0.89770   Biso      1.000     C          -0.045493           
         C9        1.0000    0.25930   0.51290   0.81440   Biso      1.000     C          -0.147277           
         C10       1.0000    0.96320   0.32860   0.01850   Biso      1.000     C          0.000461  
         C11       1.0000    0.99270   0.39090   0.98790   Biso      1.000     C          -0.136393           
         C12       1.0000    0.98460   0.46580   0.01670   Biso      1.000     C          0.087852  
         C13       1.0000    0.33540   0.52945   0.94140   Biso      1.000     C          -0.013651           
         C14       1.0000    0.94310   0.47490   0.07460   Biso      1.000     C          -0.151597           
         C15       1.0000    0.41220   0.47870   0.00850   Biso      1.000     C          -0.111647           
         C16       1.0000    0.91380   0.41130   0.10230   Biso      1.000     C          -0.045487           
         C17       1.0000    0.83900   0.89730   0.50530   Biso      1.000     C          0.621138  
         C18       1.0000    0.84360   0.16822   0.25490   Biso      1.000     C          0.636576  
         C19       1.0000    0.91390   0.08580   0.44950   Biso      1.000     C          -0.097021           
         C20       1.0000    0.41390   0.41420   0.94950   Biso      1.000     C          -0.097018           
         C21       1.0000    0.91220   0.02130   0.50850   Biso      1.000     C          -0.111643           
         C22       1.0000    0.83540   0.97055   0.44140   Biso      1.000     C          -0.013651           
         C23       1.0000    0.75930   0.98710   0.31440   Biso      1.000     C          -0.147279           
         C24       1.0000    0.83900   0.10270   0.00530   Biso      1.000     C          0.621138  
         C25       1.0000    0.76040   0.05230   0.25600   Biso      1.000     C          -0.110619           
         C26       1.0000    0.83830   0.10198   0.32280   Biso      1.000     C          -0.032278           
         C27       1.0000    0.33830   0.39802   0.82280   Biso      1.000     C          -0.032278           
         C28       1.0000    0.33900   0.60270   0.00530   Biso      1.000     C          0.621138  
         C29       1.0000    0.25930   0.48710   0.31440   Biso      1.000     C          -0.147277           
         C30       1.0000    0.33540   0.47055   0.44140   Biso      1.000     C          -0.013651           
         C31       1.0000    0.91390   0.91420   0.94950   Biso      1.000     C          -0.097021           
         C32       1.0000    0.91380   0.58870   0.60230   Biso      1.000     C          -0.045493           
         C33       1.0000    0.91220   0.97870   0.00850   Biso      1.000     C          -0.111643           
         C34       1.0000    0.83540   0.02945   0.94140   Biso      1.000     C          -0.013651           
         C35       1.0000    0.75930   0.01290   0.81440   Biso      1.000     C          -0.147279           
         C36       1.0000    0.94310   0.52510   0.57460   Biso      1.000     C          -0.151591           
         C37       1.0000    0.76040   0.94770   0.75600   Biso      1.000     C          -0.110619           
         C38       1.0000    0.83830   0.89802   0.82280   Biso      1.000     C          -0.032278           
         C39       1.0000    0.98460   0.53420   0.51670   Biso      1.000     C          0.087851  
         C40       1.0000    0.99270   0.60910   0.48790   Biso      1.000     C          -0.136396           
         C41       1.0000    0.66460   0.52945   0.55860   Biso      1.000     C          -0.013651           
         C42       1.0000    0.58780   0.47870   0.49150   Biso      1.000     C          -0.111643           
         C43       1.0000    0.96320   0.67140   0.51850   Biso      1.000     C          0.000465  
         C44       1.0000    0.46320   0.82860   0.01850   Biso      1.000     C          0.000461  
         C45       1.0000    0.49270   0.89090   0.98790   Biso      1.000     C          -0.136393           
         C46       1.0000    0.48460   0.96580   0.01670   Biso      1.000     C          0.087853  
         C47       1.0000    0.74070   0.51290   0.68560   Biso      1.000     C          -0.147279           
         C48       1.0000    0.44310   0.97490   0.07460   Biso      1.000     C          -0.151597           
         C49       1.0000    0.41380   0.91130   0.10230   Biso      1.000     C          -0.045487           
         C50       1.0000    0.33900   0.39730   0.50530   Biso      1.000     C          0.621138  
         C51       1.0000    0.34360   0.66822   0.25490   Biso      1.000     C          0.636576  
         C52       1.0000    0.73960   0.44770   0.74400   Biso      1.000     C          -0.110619           
         C53       1.0000    0.41390   0.58580   0.44950   Biso      1.000     C          -0.097019           
         C54       1.0000    0.03680   0.67140   0.98150   Biso      1.000     C          0.00046   
         C55       1.0000    0.41220   0.52130   0.50850   Biso      1.000     C          -0.111643           
         C56       1.0000    0.66170   0.39802   0.67720   Biso      1.000     C          -0.032278           
         C57       1.0000    0.41380   0.08870   0.60230   Biso      1.000     C          -0.045493           
         C58       1.0000    0.84360   0.83178   0.75490   Biso      1.000     C          0.636576  
         C59       1.0000    0.16460   0.02945   0.55860   Biso      1.000     C          -0.013651           
         C60       1.0000    0.16170   0.10198   0.17720   Biso      1.000     C          -0.03228  
         C61       1.0000    0.66170   0.60198   0.17720   Biso      1.000     C          -0.03228  
         C62       1.0000    0.23960   0.94770   0.74400   Biso      1.000     C          -0.110621           
         C63       1.0000    0.23960   0.05230   0.24400   Biso      1.000     C          -0.110621           
         C64       1.0000    0.53680   0.17140   0.98150   Biso      1.000     C          0.00046   
         C65       1.0000    0.24070   0.01290   0.68560   Biso      1.000     C          -0.147277           
         C66       1.0000    0.55690   0.02510   0.92540   Biso      1.000     C          -0.151591           
         C67       1.0000    0.08780   0.97870   0.49150   Biso      1.000     C          -0.111647           
         C68       1.0000    0.03680   0.32860   0.48150   Biso      1.000     C          0.000461  
         C69       1.0000    0.00730   0.39090   0.51210   Biso      1.000     C          -0.136393           
         C70       1.0000    0.01540   0.46580   0.48330   Biso      1.000     C          0.087853  
         C71       1.0000    0.08610   0.91420   0.55050   Biso      1.000     C          -0.097017           
         C72       1.0000    0.05690   0.47490   0.42540   Biso      1.000     C          -0.151597           
         C73       1.0000    0.24070   0.98710   0.18560   Biso      1.000     C          -0.147277           
         C74       1.0000    0.08620   0.58870   0.89770   Biso      1.000     C          -0.045493           
         C75       1.0000    0.08620   0.41130   0.39770   Biso      1.000     C          -0.045487           
         C76       1.0000    0.16100   0.89730   0.99470   Biso      1.000     C          0.621138  
         C77       1.0000    0.15640   0.16822   0.24510   Biso      1.000     C          0.636576  
         C78       1.0000    0.15640   0.83178   0.74510   Biso      1.000     C          0.636576  
         C79       1.0000    0.16460   0.97055   0.05860   Biso      1.000     C          -0.013651           
         C80       1.0000    0.08610   0.08580   0.05050   Biso      1.000     C          -0.097019           
         C81       1.0000    0.16100   0.10270   0.49470   Biso      1.000     C          0.621138  
         C82       1.0000    0.16170   0.89802   0.67720   Biso      1.000     C          -0.032278           
         C83       1.0000    0.73960   0.55230   0.24400   Biso      1.000     C          -0.110621           
         C84       1.0000    0.05690   0.52510   0.92540   Biso      1.000     C          -0.151591           
         C85       1.0000    0.51540   0.03420   0.98330   Biso      1.000     C          0.08785   
         C86       1.0000    0.50730   0.10910   0.01210   Biso      1.000     C          -0.136391           
         C87       1.0000    0.44310   0.02510   0.57460   Biso      1.000     C          -0.151591           
         C88       1.0000    0.53680   0.82860   0.48150   Biso      1.000     C          0.00046   
         C89       1.0000    0.00730   0.60910   0.01210   Biso      1.000     C          -0.136393           
         C90       1.0000    0.50730   0.89090   0.51210   Biso      1.000     C          -0.136393           
         C91       1.0000    0.51540   0.96580   0.48330   Biso      1.000     C          0.087853  
         C92       1.0000    0.48460   0.03420   0.51670   Biso      1.000     C          0.087851  
         C93       1.0000    0.55690   0.97490   0.42540   Biso      1.000     C          -0.151597           
         C94       1.0000    0.01540   0.53420   0.98330   Biso      1.000     C          0.087852  
         C95       1.0000    0.74070   0.48710   0.18560   Biso      1.000     C          -0.147277           
         C96       1.0000    0.49270   0.10910   0.48790   Biso      1.000     C          -0.136396           
         C97       1.0000    0.58620   0.91130   0.39770   Biso      1.000     C          -0.045487           
         C98       1.0000    0.66100   0.39730   0.99470   Biso      1.000     C          0.621138  
         C99       1.0000    0.65640   0.66822   0.24510   Biso      1.000     C          0.636576  
         C100      1.0000    0.58610   0.58580   0.05050   Biso      1.000     C          -0.097019           
         C101      1.0000    0.46320   0.17140   0.51850   Biso      1.000     C          0.000465  
         C102      1.0000    0.58780   0.52130   0.99150   Biso      1.000     C          -0.111643           
         C103      1.0000    0.66460   0.47055   0.05860   Biso      1.000     C          -0.013651           
         C104      1.0000    0.08780   0.02130   0.99150   Biso      1.000     C          -0.111643           
         H1        1.0000    0.11100   0.58300   0.86500   Biso      1.000     H          0.137953  
         H2        1.0000    0.06600   0.47900   0.90400   Biso      1.000     H          0.13623   
         H3        1.0000    0.97500   0.62200   0.04500   Biso      1.000     H          0.136996  
         H4        1.0000    0.88900   0.58300   0.63500   Biso      1.000     H          0.137953  
         H5        1.0000    0.93400   0.47900   0.59600   Biso      1.000     H          0.13623   
         H6        1.0000    0.38900   0.08300   0.63500   Biso      1.000     H          0.137953  
         H7        1.0000    0.97100   0.72000   0.51100   Biso      1.000     H          0.146171  
         H8        1.0000    0.79400   0.43500   0.83500   Biso      1.000     H          0.077501  
         H9        1.0000    0.04100   0.87700   0.51300   Biso      1.000     H          0.114344  
         H10       1.0000    0.03800   0.99200   0.41500   Biso      1.000     H          0.125396  
         H11       1.0000    0.29100   0.04700   0.72700   Biso      1.000     H          0.105034  
         H12       1.0000    0.29400   0.93500   0.83500   Biso      1.000     H          0.077501  
         H13       1.0000    0.20600   0.43500   0.66500   Biso      1.000     H          0.077501  
         H14       1.0000    0.47100   0.22000   0.51100   Biso      1.000     H          0.146171  
         H15       1.0000    0.20900   0.54700   0.77300   Biso      1.000     H          0.105034  
         H16       1.0000    0.52500   0.12200   0.45500   Biso      1.000     H          0.136996  
         H17       1.0000    0.46200   0.49200   0.08500   Biso      1.000     H          0.125396  
         H18       1.0000    0.45900   0.37700   0.98700   Biso      1.000     H          0.114344  
         H19       1.0000    0.43400   0.97900   0.59600   Biso      1.000     H          0.13623   
         H20       1.0000    0.02500   0.62200   0.45500   Biso      1.000     H          0.136996  
         H21       1.0000    0.46200   0.50800   0.58500   Biso      1.000     H          0.125396  
         H22       1.0000    0.02900   0.72000   0.98900   Biso      1.000     H          0.146171  
         H23       1.0000    0.96200   0.99200   0.08500   Biso      1.000     H          0.125396  
         H24       1.0000    0.61100   0.08300   0.86500   Biso      1.000     H          0.137953  
         H25       1.0000    0.56600   0.97900   0.90400   Biso      1.000     H          0.13623   
         H26       1.0000    0.52900   0.78000   0.48900   Biso      1.000     H          0.146171  
         H27       1.0000    0.47500   0.87800   0.54500   Biso      1.000     H          0.136996  
         H28       1.0000    0.95900   0.87700   0.98700   Biso      1.000     H          0.114345  
         H29       1.0000    0.61100   0.91700   0.36500   Biso      1.000     H          0.137953  
         H30       1.0000    0.54100   0.62300   0.01300   Biso      1.000     H          0.114344  
         H31       1.0000    0.53800   0.50800   0.91500   Biso      1.000     H          0.125396  
         H32       1.0000    0.79100   0.45300   0.22700   Biso      1.000     H          0.105034  
         H33       1.0000    0.70600   0.06500   0.16500   Biso      1.000     H          0.077501  
         H34       1.0000    0.79400   0.56500   0.33500   Biso      1.000     H          0.077501  
         H35       1.0000    0.52900   0.22000   0.98900   Biso      1.000     H          0.146171  
         H36       1.0000    0.02900   0.28000   0.48900   Biso      1.000     H          0.146171  
         H37       1.0000    0.97500   0.37800   0.54500   Biso      1.000     H          0.136996  
         H38       1.0000    0.06600   0.52100   0.40400   Biso      1.000     H          0.13623   
         H39       1.0000    0.11100   0.41700   0.36500   Biso      1.000     H          0.137953  
         H40       1.0000    0.04100   0.12300   0.01300   Biso      1.000     H          0.114344  
         H41       1.0000    0.03800   0.00800   0.91500   Biso      1.000     H          0.125396  
         H42       1.0000    0.29100   0.95300   0.22700   Biso      1.000     H          0.105034  
         H43       1.0000    0.29400   0.06500   0.33500   Biso      1.000     H          0.077501  
         H44       1.0000    0.47500   0.12200   0.04500   Biso      1.000     H          0.136996  
         H45       1.0000    0.70900   0.95300   0.27300   Biso      1.000     H          0.105034  
         H46       1.0000    0.56600   0.02100   0.40400   Biso      1.000     H          0.13623   
         H47       1.0000    0.95900   0.12300   0.48700   Biso      1.000     H          0.114345  
         H48       1.0000    0.38900   0.91700   0.13500   Biso      1.000     H          0.137953  
         H49       1.0000    0.96200   0.00800   0.58500   Biso      1.000     H          0.125396  
         H50       1.0000    0.45900   0.62300   0.48700   Biso      1.000     H          0.114344  
         H51       1.0000    0.47100   0.78000   0.01100   Biso      1.000     H          0.146171  
         H52       1.0000    0.53800   0.49200   0.41500   Biso      1.000     H          0.125396  
         H53       1.0000    0.79100   0.54700   0.72700   Biso      1.000     H          0.105034  
         H54       1.0000    0.70600   0.93500   0.66500   Biso      1.000     H          0.077501  
         H55       1.0000    0.70900   0.04700   0.77300   Biso      1.000     H          0.105034  
         H56       1.0000    0.43400   0.02100   0.09600   Biso      1.000     H          0.13623   
         H57       1.0000    0.20900   0.45300   0.27300   Biso      1.000     H          0.105034  
         H58       1.0000    0.20600   0.56500   0.16500   Biso      1.000     H          0.077501  
         H59       1.0000    0.54100   0.37700   0.51300   Biso      1.000     H          0.114345  
         H60       1.0000    0.97100   0.28000   0.01100   Biso      1.000     H          0.146171  
         H61       1.0000    0.02500   0.37800   0.95500   Biso      1.000     H          0.136996  
         H62       1.0000    0.93400   0.52100   0.09600   Biso      1.000     H          0.13623   
         H63       1.0000    0.88900   0.41700   0.13500   Biso      1.000     H          0.137953  
         H64       1.0000    0.52500   0.87800   0.95500   Biso      1.000     H          0.136996  
         Mg1       1.0000    0.25000   0.75000   0.00000   Biso      1.000     Mg          1.356793  
         Mg2       1.0000    0.00000   0.19470   0.25000   Biso      1.000     Mg          1.378448  
         Mg3       1.0000    0.00000   0.80530   0.75000   Biso      1.000     Mg          1.378448  
         Mg4       1.0000    0.50000   0.69470   0.25000   Biso      1.000     Mg          1.378448  
         Mg5       1.0000    0.75000   0.75000   0.50000   Biso      1.000     Mg          1.356793  
         Mg6       1.0000    0.50000   0.30530   0.75000   Biso      1.000     Mg          1.378448  
         Mg7       1.0000    0.25000   0.25000   0.50000   Biso      1.000     Mg          1.356793  
         Mg8       1.0000    0.75000   0.25000   0.00000   Biso      1.000     Mg          1.356793  
         N1        1.0000    0.07407   0.66028   0.92280   Biso      1.000     N          0.382443  
         N2        1.0000    0.92593   0.66028   0.57720   Biso      1.000     N          0.382443  
         N3        1.0000    0.07407   0.33972   0.42280   Biso      1.000     N          0.382442  
         N4        1.0000    0.57407   0.16028   0.92280   Biso      1.000     N          0.382443  
         N5        1.0000    0.42593   0.16028   0.57720   Biso      1.000     N          0.382443  
         N6        1.0000    0.42593   0.83972   0.07720   Biso      1.000     N          0.382442  
         N7        1.0000    0.92593   0.33972   0.07720   Biso      1.000     N          0.382442  
         N8        1.0000    0.57407   0.83972   0.42280   Biso      1.000     N          0.382442  
         O1        1.0000    0.73013   0.31338   0.85500   Biso      1.000     O          -0.646419           
         O2        1.0000    0.57555   0.29987   0.68620   Biso      1.000     O          -0.686504           
         O3        1.0000    0.73052   0.64896   0.56190   Biso      1.000     O          -0.660617           
         O4        1.0000    0.58837   0.61192   0.38000   Biso      1.000     O          -0.640178           
         O5        1.0000    0.59988   0.22094   0.88970   Biso      1.000     O          -0.596029           
         O6        1.0000    0.23013   0.18662   0.35500   Biso      1.000     O          -0.646419           
         O7        1.0000    0.08837   0.11192   0.38000   Biso      1.000     O          -0.640178           
         O8        1.0000    0.07555   0.20013   0.18620   Biso      1.000     O          -0.686504           
         O9        1.0000    0.23052   0.85104   0.06190   Biso      1.000     O          -0.660617           
         O10       1.0000    0.08837   0.88808   0.88000   Biso      1.000     O          -0.640178           
         O11       1.0000    0.09988   0.27906   0.38970   Biso      1.000     O          -0.596029           
         O12       1.0000    0.73013   0.68662   0.35500   Biso      1.000     O          -0.646419           
         O13       1.0000    0.57555   0.70013   0.18620   Biso      1.000     O          -0.686504           
         O14       1.0000    0.73052   0.35104   0.06190   Biso      1.000     O          -0.660617           
         O15       1.0000    0.58837   0.38808   0.88000   Biso      1.000     O          -0.640178           
         O16       1.0000    0.59988   0.77906   0.38970   Biso      1.000     O          -0.596029           
         O17       1.0000    0.76987   0.18662   0.14500   Biso      1.000     O          -0.646419           
         O18       1.0000    0.92445   0.20013   0.31380   Biso      1.000     O          -0.686504           
         O19       1.0000    0.76948   0.85104   0.43810   Biso      1.000     O          -0.660617           
         O20       1.0000    0.91163   0.88808   0.62000   Biso      1.000     O          -0.640178           
         O21       1.0000    0.90012   0.27906   0.11030   Biso      1.000     O          -0.596029           
         O22       1.0000    0.26987   0.68662   0.14500   Biso      1.000     O          -0.646419           
         O23       1.0000    0.42445   0.70013   0.31380   Biso      1.000     O          -0.686504           
         O24       1.0000    0.26948   0.35104   0.43810   Biso      1.000     O          -0.660617           
         O25       1.0000    0.23052   0.14896   0.56190   Biso      1.000     O          -0.660617           
         O26       1.0000    0.07555   0.79987   0.68620   Biso      1.000     O          -0.686504           
         O27       1.0000    0.23013   0.81338   0.85500   Biso      1.000     O          -0.646419           
         O28       1.0000    0.40012   0.22094   0.61030   Biso      1.000     O          -0.596029           
         O29       1.0000    0.41163   0.61192   0.12000   Biso      1.000     O          -0.640178           
         O30       1.0000    0.26948   0.64896   0.93810   Biso      1.000     O          -0.660617           
         O31       1.0000    0.09988   0.72094   0.88970   Biso      1.000     O          -0.596029           
         O32       1.0000    0.42445   0.29987   0.81380   Biso      1.000     O          -0.686504           
         O33       1.0000    0.90012   0.72094   0.61030   Biso      1.000     O          -0.596029           
         O34       1.0000    0.76948   0.14896   0.93810   Biso      1.000     O          -0.660617           
         O35       1.0000    0.92445   0.79987   0.81380   Biso      1.000     O          -0.686504           
         O36       1.0000    0.76987   0.81338   0.64500   Biso      1.000     O          -0.646419           
         O37       1.0000    0.40012   0.77906   0.11030   Biso      1.000     O          -0.596029           
         O38       1.0000    0.41163   0.38808   0.62000   Biso      1.000     O          -0.640178           
         O39       1.0000    0.26987   0.31338   0.64500   Biso      1.000     O          -0.646419           
         O40       1.0000    0.91163   0.11192   0.12000   Biso      1.000     O          -0.640178 