
##########################################################################
#               Crystallographic Information Format file
#               Produced by PyCifRW module
#
#  This is a CIF file.  CIF has been adopted by the International
#  Union of Crystallography as the standard for data archiving and
#  transmission.
#
#  For information on this file format, follow the CIF links at
#  http://www.iucr.org
##########################################################################

data_image0

_cell_length_a                          18.51
_cell_length_b                          16.894
_cell_length_c                          13.924
_cell_angle_alpha                       90
_cell_angle_beta                        130.542
_cell_angle_gamma                       90
_symmetry_space_group_name_H-M          'P 1'
_symmetry_int_tables_number             1
loop_
  _symmetry_equiv_pos_as_xyz
         'x, y, z' 
loop_
  _atom_site_label
  _atom_site_occupancy
  _atom_site_fract_x
  _atom_site_fract_y
  _atom_site_fract_z
  _atom_site_thermal_displace_type
  _atom_site_B_iso_or_equiv
  _atom_site_type_symbol
  _atom_site_charge
         C1        1.0000    0.83890   0.10000   0.50620   Biso      1.000     C          0.626743  
         C2        1.0000    0.91170   0.02371   0.00550   Biso      1.000     C          -0.103469           
         C3        1.0000    0.83506   0.97305   0.94140   Biso      1.000     C          -0.018523           
         C4        1.0000    0.91170   0.97629   0.50550   Biso      1.000     C          -0.10347  
         C5        1.0000    0.24100   0.01158   0.18370   Biso      1.000     C          -0.139175           
         C6        1.0000    0.16110   0.10000   0.99380   Biso      1.000     C          0.626743  
         C7        1.0000    0.15645   0.83225   0.24930   Biso      1.000     C          0.638223  
         C8        1.0000    0.96300   0.32652   0.52320   Biso      1.000     C          0.022847  
         C9        1.0000    0.91330   0.91249   0.44470   Biso      1.000     C          -0.109246           
         C10       1.0000    0.58510   0.08566   0.39880   Biso      1.000     C          -0.014005           
         C11       1.0000    0.55600   0.02244   0.42830   Biso      1.000     C          -0.168874           
         C12       1.0000    0.51539   0.03385   0.48300   Biso      1.000     C          0.091794  
         C13       1.0000    0.83755   0.89738   0.31910   Biso      1.000     C          -0.019699           
         C14       1.0000    0.50780   0.11144   0.50810   Biso      1.000     C          -0.155734           
         C15       1.0000    0.76020   0.94670   0.25640   Biso      1.000     C          -0.125438           
         C16       1.0000    0.53700   0.17348   0.47680   Biso      1.000     C          0.022854  
         C17       1.0000    0.34355   0.66775   0.75070   Biso      1.000     C          0.638223  
         C18       1.0000    0.33890   0.40000   0.00620   Biso      1.000     C          0.626743  
         C19       1.0000    0.25900   0.48842   0.81630   Biso      1.000     C          -0.139175           
         C20       1.0000    0.75900   0.01158   0.31630   Biso      1.000     C          -0.139173           
         C21       1.0000    0.26020   0.55330   0.75640   Biso      1.000     C          -0.125437           
         C22       1.0000    0.33755   0.60262   0.81910   Biso      1.000     C          -0.019699           
         C23       1.0000    0.41330   0.58751   0.94470   Biso      1.000     C          -0.109247           
         C24       1.0000    0.34355   0.33225   0.25070   Biso      1.000     C          0.638223  
         C25       1.0000    0.41170   0.52371   0.00550   Biso      1.000     C          -0.103468           
         C26       1.0000    0.33506   0.47305   0.94140   Biso      1.000     C          -0.01852  
         C27       1.0000    0.83506   0.02695   0.44140   Biso      1.000     C          -0.01852  
         C28       1.0000    0.84355   0.83225   0.25070   Biso      1.000     C          0.638223  
         C29       1.0000    0.91330   0.08751   0.94470   Biso      1.000     C          -0.109246           
         C30       1.0000    0.83755   0.10262   0.81910   Biso      1.000     C          -0.019699           
         C31       1.0000    0.25900   0.51158   0.31630   Biso      1.000     C          -0.139175           
         C32       1.0000    0.53700   0.82652   0.97680   Biso      1.000     C          0.022847  
         C33       1.0000    0.26020   0.44670   0.25640   Biso      1.000     C          -0.125437           
         C34       1.0000    0.33755   0.39738   0.31910   Biso      1.000     C          -0.019699           
         C35       1.0000    0.41330   0.41249   0.44470   Biso      1.000     C          -0.109247           
         C36       1.0000    0.50780   0.88856   0.00810   Biso      1.000     C          -0.155727           
         C37       1.0000    0.41170   0.47629   0.50550   Biso      1.000     C          -0.103468           
         C38       1.0000    0.33506   0.52695   0.44140   Biso      1.000     C          -0.01852  
         C39       1.0000    0.51539   0.96615   0.98300   Biso      1.000     C          0.091794  
         C40       1.0000    0.55600   0.97756   0.92830   Biso      1.000     C          -0.16888  
         C41       1.0000    0.16245   0.89738   0.18090   Biso      1.000     C          -0.019699           
         C42       1.0000    0.23980   0.94670   0.24360   Biso      1.000     C          -0.125437           
         C43       1.0000    0.58510   0.91434   0.89880   Biso      1.000     C          -0.013998           
         C44       1.0000    0.08510   0.58566   0.39880   Biso      1.000     C          -0.014005           
         C45       1.0000    0.05600   0.52244   0.42830   Biso      1.000     C          -0.168874           
         C46       1.0000    0.01539   0.53385   0.48300   Biso      1.000     C          0.091794  
         C47       1.0000    0.08670   0.91249   0.05530   Biso      1.000     C          -0.109247           
         C48       1.0000    0.00780   0.61144   0.50810   Biso      1.000     C          -0.155734           
         C49       1.0000    0.03700   0.67348   0.47680   Biso      1.000     C          0.022854  
         C50       1.0000    0.84355   0.16775   0.75070   Biso      1.000     C          0.638223  
         C51       1.0000    0.83890   0.90000   0.00620   Biso      1.000     C          0.626743  
         C52       1.0000    0.08830   0.97629   0.99450   Biso      1.000     C          -0.103468           
         C53       1.0000    0.75900   0.98842   0.81630   Biso      1.000     C          -0.139171           
         C54       1.0000    0.41490   0.91434   0.60120   Biso      1.000     C          -0.014005           
         C55       1.0000    0.76020   0.05330   0.75640   Biso      1.000     C          -0.125437           
         C56       1.0000    0.16494   0.02695   0.05860   Biso      1.000     C          -0.01852  
         C57       1.0000    0.03700   0.32652   0.97680   Biso      1.000     C          0.022847  
         C58       1.0000    0.33890   0.60000   0.50620   Biso      1.000     C          0.626743  
         C59       1.0000    0.66245   0.39738   0.18090   Biso      1.000     C          -0.019699           
         C60       1.0000    0.66494   0.47305   0.55860   Biso      1.000     C          -0.018529           
         C61       1.0000    0.16494   0.97305   0.55860   Biso      1.000     C          -0.018529           
         C62       1.0000    0.58830   0.47629   0.99450   Biso      1.000     C          -0.10347  
         C63       1.0000    0.58830   0.52371   0.49450   Biso      1.000     C          -0.103463           
         C64       1.0000    0.91490   0.41434   0.60120   Biso      1.000     C          -0.014005           
         C65       1.0000    0.58670   0.41249   0.05530   Biso      1.000     C          -0.109245           
         C66       1.0000    0.99220   0.38856   0.49190   Biso      1.000     C          -0.155727           
         C67       1.0000    0.73980   0.44670   0.24360   Biso      1.000     C          -0.125438           
         C68       1.0000    0.41490   0.08566   0.10120   Biso      1.000     C          -0.014005           
         C69       1.0000    0.44400   0.02244   0.07170   Biso      1.000     C          -0.168874           
         C70       1.0000    0.48461   0.03385   0.01700   Biso      1.000     C          0.091794  
         C71       1.0000    0.74100   0.51158   0.18370   Biso      1.000     C          -0.139173           
         C72       1.0000    0.49220   0.11144   0.99190   Biso      1.000     C          -0.155734           
         C73       1.0000    0.58670   0.58751   0.55530   Biso      1.000     C          -0.109247           
         C74       1.0000    0.46300   0.82652   0.52320   Biso      1.000     C          0.022847  
         C75       1.0000    0.46300   0.17348   0.02320   Biso      1.000     C          0.022854  
         C76       1.0000    0.65645   0.66775   0.74930   Biso      1.000     C          0.638223  
         C77       1.0000    0.66110   0.40000   0.49380   Biso      1.000     C          0.626744  
         C78       1.0000    0.66110   0.60000   0.99380   Biso      1.000     C          0.626743  
         C79       1.0000    0.66245   0.60262   0.68090   Biso      1.000     C          -0.019699           
         C80       1.0000    0.74100   0.48842   0.68370   Biso      1.000     C          -0.139171           
         C81       1.0000    0.65645   0.33225   0.24930   Biso      1.000     C          0.638223  
         C82       1.0000    0.66494   0.52695   0.05860   Biso      1.000     C          -0.01852  
         C83       1.0000    0.08830   0.02371   0.49450   Biso      1.000     C          -0.103463           
         C84       1.0000    0.49220   0.88856   0.49190   Biso      1.000     C          -0.155727           
         C85       1.0000    0.98461   0.46615   0.51700   Biso      1.000     C          0.091793  
         C86       1.0000    0.94400   0.47756   0.57170   Biso      1.000     C          -0.168874           
         C87       1.0000    0.00780   0.38856   0.00810   Biso      1.000     C          -0.155727           
         C88       1.0000    0.91490   0.58566   0.10120   Biso      1.000     C          -0.014005           
         C89       1.0000    0.44400   0.97756   0.57170   Biso      1.000     C          -0.168874           
         C90       1.0000    0.94400   0.52244   0.07170   Biso      1.000     C          -0.168874           
         C91       1.0000    0.98461   0.53385   0.01700   Biso      1.000     C          0.091794  
         C92       1.0000    0.01539   0.46615   0.98300   Biso      1.000     C          0.091794  
         C93       1.0000    0.99220   0.61144   0.99190   Biso      1.000     C          -0.155734           
         C94       1.0000    0.48461   0.96615   0.51700   Biso      1.000     C          0.091793  
         C95       1.0000    0.08670   0.08751   0.55530   Biso      1.000     C          -0.109247           
         C96       1.0000    0.05600   0.47756   0.92830   Biso      1.000     C          -0.16888  
         C97       1.0000    0.96300   0.67348   0.02320   Biso      1.000     C          0.022854  
         C98       1.0000    0.15645   0.16775   0.74930   Biso      1.000     C          0.638223  
         C99       1.0000    0.16110   0.90000   0.49380   Biso      1.000     C          0.626743  
         C100      1.0000    0.24100   0.98842   0.68370   Biso      1.000     C          -0.139171           
         C101      1.0000    0.08510   0.41434   0.89880   Biso      1.000     C          -0.013998           
         C102      1.0000    0.23980   0.05330   0.74360   Biso      1.000     C          -0.125438           
         C103      1.0000    0.16245   0.10262   0.68090   Biso      1.000     C          -0.019698           
         C104      1.0000    0.73980   0.55330   0.74360   Biso      1.000     C          -0.125438           
         H1        1.0000    0.46840   0.77480   0.50560   Biso      1.000     H          0.146523  
         H2        1.0000    0.51740   0.87830   0.45330   Biso      1.000     H          0.136792  
         H3        1.0000    0.43640   0.02870   0.58860   Biso      1.000     H          0.135922  
         H4        1.0000    0.53160   0.77480   0.99440   Biso      1.000     H          0.146523  
         H5        1.0000    0.48260   0.87830   0.04670   Biso      1.000     H          0.136792  
         H6        1.0000    0.03160   0.27480   0.99440   Biso      1.000     H          0.146523  
         H7        1.0000    0.61310   0.92290   0.86340   Biso      1.000     H          0.135852  
         H8        1.0000    0.03700   0.98510   0.90940   Biso      1.000     H          0.121979  
         H9        1.0000    0.79360   0.54490   0.22830   Biso      1.000     H          0.102738  
         H10       1.0000    0.79230   0.43650   0.32770   Biso      1.000     H          0.085108  
         H11       1.0000    0.53400   0.37930   0.01090   Biso      1.000     H          0.113227  
         H12       1.0000    0.53700   0.48510   0.90940   Biso      1.000     H          0.121979  
         H13       1.0000    0.96300   0.98510   0.59060   Biso      1.000     H          0.121979  
         H14       1.0000    0.11310   0.42290   0.86340   Biso      1.000     H          0.135852  
         H15       1.0000    0.96600   0.87930   0.48910   Biso      1.000     H          0.113227  
         H16       1.0000    0.06360   0.52870   0.91140   Biso      1.000     H          0.135922  
         H17       1.0000    0.70770   0.93650   0.17230   Biso      1.000     H          0.085108  
         H18       1.0000    0.70640   0.04490   0.27170   Biso      1.000     H          0.102738  
         H19       1.0000    0.98260   0.37830   0.04670   Biso      1.000     H          0.136792  
         H20       1.0000    0.56360   0.02870   0.91140   Biso      1.000     H          0.135922  
         H21       1.0000    0.70770   0.06350   0.67230   Biso      1.000     H          0.085108  
         H22       1.0000    0.38690   0.92290   0.63660   Biso      1.000     H          0.135853  
         H23       1.0000    0.20770   0.43650   0.17230   Biso      1.000     H          0.085108  
         H24       1.0000    0.96840   0.27480   0.50560   Biso      1.000     H          0.146523  
         H25       1.0000    0.01740   0.37830   0.45330   Biso      1.000     H          0.136792  
         H26       1.0000    0.88690   0.57710   0.13660   Biso      1.000     H          0.135853  
         H27       1.0000    0.93640   0.47130   0.08860   Biso      1.000     H          0.135922  
         H28       1.0000    0.20640   0.54490   0.27170   Biso      1.000     H          0.102738  
         H29       1.0000    0.96840   0.72520   0.00560   Biso      1.000     H          0.146523  
         H30       1.0000    0.29360   0.95510   0.72830   Biso      1.000     H          0.102738  
         H31       1.0000    0.29230   0.06350   0.82770   Biso      1.000     H          0.085108  
         H32       1.0000    0.03400   0.12070   0.51090   Biso      1.000     H          0.113227  
         H33       1.0000    0.46300   0.51490   0.09060   Biso      1.000     H          0.121979  
         H34       1.0000    0.03700   0.01490   0.40940   Biso      1.000     H          0.121978  
         H35       1.0000    0.88690   0.42290   0.63660   Biso      1.000     H          0.135853  
         H36       1.0000    0.38690   0.07710   0.13660   Biso      1.000     H          0.135853  
         H37       1.0000    0.43640   0.97130   0.08860   Biso      1.000     H          0.135922  
         H38       1.0000    0.51740   0.12170   0.95330   Biso      1.000     H          0.136793  
         H39       1.0000    0.46840   0.22520   0.00560   Biso      1.000     H          0.146523  
         H40       1.0000    0.79360   0.45510   0.72830   Biso      1.000     H          0.102738  
         H41       1.0000    0.79230   0.56350   0.82770   Biso      1.000     H          0.085108  
         H42       1.0000    0.53400   0.62070   0.51090   Biso      1.000     H          0.113227  
         H43       1.0000    0.53700   0.51490   0.40940   Biso      1.000     H          0.121978  
         H44       1.0000    0.93640   0.52870   0.58860   Biso      1.000     H          0.135922  
         H45       1.0000    0.46600   0.62070   0.98910   Biso      1.000     H          0.113227  
         H46       1.0000    0.01740   0.62170   0.95330   Biso      1.000     H          0.136793  
         H47       1.0000    0.20640   0.45510   0.77170   Biso      1.000     H          0.102738  
         H48       1.0000    0.03160   0.72520   0.49440   Biso      1.000     H          0.146523  
         H49       1.0000    0.20770   0.56350   0.67230   Biso      1.000     H          0.085108  
         H50       1.0000    0.70640   0.95510   0.77170   Biso      1.000     H          0.102738  
         H51       1.0000    0.11310   0.57710   0.36340   Biso      1.000     H          0.135853  
         H52       1.0000    0.29230   0.93650   0.32770   Biso      1.000     H          0.085108  
         H53       1.0000    0.03400   0.87930   0.01090   Biso      1.000     H          0.113227  
         H54       1.0000    0.46300   0.48510   0.59060   Biso      1.000     H          0.121979  
         H55       1.0000    0.46600   0.37930   0.48910   Biso      1.000     H          0.113227  
         H56       1.0000    0.98260   0.62170   0.54670   Biso      1.000     H          0.136793  
         H57       1.0000    0.96600   0.12070   0.98910   Biso      1.000     H          0.113227  
         H58       1.0000    0.96300   0.01490   0.09060   Biso      1.000     H          0.121979  
         H59       1.0000    0.29360   0.04490   0.22830   Biso      1.000     H          0.102738  
         H60       1.0000    0.61310   0.07710   0.36340   Biso      1.000     H          0.135853  
         H61       1.0000    0.56360   0.97130   0.41140   Biso      1.000     H          0.135922  
         H62       1.0000    0.48260   0.12170   0.54670   Biso      1.000     H          0.136793  
         H63       1.0000    0.53160   0.22520   0.49440   Biso      1.000     H          0.146523  
         H64       1.0000    0.06360   0.47130   0.41140   Biso      1.000     H          0.135922  
         Mg1       1.0000    0.00000   0.19210   0.75000   Biso      1.000     Mg          1.381885  
         Mg2       1.0000    0.75000   0.25000   0.50000   Biso      1.000     Mg          1.360315  
         Mg3       1.0000    0.25000   0.75000   0.50000   Biso      1.000     Mg          1.360315  
         Mg4       1.0000    0.25000   0.25000   0.00000   Biso      1.000     Mg          1.360315  
         Mg5       1.0000    0.50000   0.69210   0.75000   Biso      1.000     Mg          1.381885  
         Mg6       1.0000    0.75000   0.75000   0.00000   Biso      1.000     Mg          1.360315  
         Mg7       1.0000    0.50000   0.30790   0.25000   Biso      1.000     Mg          1.381885  
         Mg8       1.0000    0.00000   0.80790   0.25000   Biso      1.000     Mg          1.381885  
         N1        1.0000    0.42669   0.84051   0.57910   Biso      1.000     N          0.366242  
         N2        1.0000    0.57331   0.84051   0.92090   Biso      1.000     N          0.366241  
         N3        1.0000    0.42669   0.15949   0.07910   Biso      1.000     N          0.366241  
         N4        1.0000    0.92669   0.34051   0.57910   Biso      1.000     N          0.366242  
         N5        1.0000    0.07331   0.34051   0.92090   Biso      1.000     N          0.366241  
         N6        1.0000    0.07331   0.65949   0.42090   Biso      1.000     N          0.366241  
         N7        1.0000    0.57331   0.15949   0.42090   Biso      1.000     N          0.366241  
         N8        1.0000    0.92669   0.65949   0.07910   Biso      1.000     N          0.366241  
         O1        1.0000    0.08840   0.10869   0.88060   Biso      1.000     O          -0.645005           
         O2        1.0000    0.23061   0.14682   0.05848   Biso      1.000     O          -0.667726           
         O3        1.0000    0.07600   0.80203   0.19239   Biso      1.000     O          -0.686289           
         O4        1.0000    0.23030   0.81410   0.35797   Biso      1.000     O          -0.646543           
         O5        1.0000    0.90079   0.28010   0.61233   Biso      1.000     O          -0.595375           
         O6        1.0000    0.58840   0.39131   0.38060   Biso      1.000     O          -0.645006           
         O7        1.0000    0.73030   0.31410   0.35797   Biso      1.000     O          -0.646543           
         O8        1.0000    0.73061   0.35318   0.55848   Biso      1.000     O          -0.667726           
         O9        1.0000    0.57600   0.69797   0.69239   Biso      1.000     O          -0.686289           
         O10       1.0000    0.73030   0.68590   0.85797   Biso      1.000     O          -0.646543           
         O11       1.0000    0.40079   0.21990   0.11233   Biso      1.000     O          -0.595375           
         O12       1.0000    0.08840   0.89131   0.38060   Biso      1.000     O          -0.645006           
         O13       1.0000    0.23061   0.85318   0.55848   Biso      1.000     O          -0.667726           
         O14       1.0000    0.07600   0.19797   0.69239   Biso      1.000     O          -0.686289           
         O15       1.0000    0.23030   0.18590   0.85797   Biso      1.000     O          -0.646543           
         O16       1.0000    0.90079   0.71990   0.11233   Biso      1.000     O          -0.595375           
         O17       1.0000    0.41160   0.39131   0.11940   Biso      1.000     O          -0.645005           
         O18       1.0000    0.26939   0.35318   0.94152   Biso      1.000     O          -0.667726           
         O19       1.0000    0.42400   0.69797   0.80761   Biso      1.000     O          -0.686289           
         O20       1.0000    0.26970   0.68590   0.64203   Biso      1.000     O          -0.646543           
         O21       1.0000    0.59921   0.21990   0.38767   Biso      1.000     O          -0.595375           
         O22       1.0000    0.91160   0.89131   0.11940   Biso      1.000     O          -0.645005           
         O23       1.0000    0.76939   0.85318   0.94152   Biso      1.000     O          -0.667726           
         O24       1.0000    0.92400   0.19797   0.80761   Biso      1.000     O          -0.686289           
         O25       1.0000    0.57600   0.30203   0.19239   Biso      1.000     O          -0.686289           
         O26       1.0000    0.73061   0.64682   0.05848   Biso      1.000     O          -0.667726           
         O27       1.0000    0.58840   0.60869   0.88060   Biso      1.000     O          -0.645005           
         O28       1.0000    0.09921   0.28010   0.88767   Biso      1.000     O          -0.595375           
         O29       1.0000    0.76970   0.81410   0.14203   Biso      1.000     O          -0.646543           
         O30       1.0000    0.92400   0.80203   0.30761   Biso      1.000     O          -0.686289           
         O31       1.0000    0.40079   0.78010   0.61233   Biso      1.000     O          -0.595375           
         O32       1.0000    0.76939   0.14682   0.44152   Biso      1.000     O          -0.667726           
         O33       1.0000    0.59921   0.78010   0.88767   Biso      1.000     O          -0.595375           
         O34       1.0000    0.42400   0.30203   0.30761   Biso      1.000     O          -0.686289           
         O35       1.0000    0.26939   0.64682   0.44152   Biso      1.000     O          -0.667726           
         O36       1.0000    0.41160   0.60869   0.61940   Biso      1.000     O          -0.645005           
         O37       1.0000    0.09921   0.71990   0.38767   Biso      1.000     O          -0.595375           
         O38       1.0000    0.76970   0.18590   0.64203   Biso      1.000     O          -0.646543           
         O39       1.0000    0.91160   0.10869   0.61940   Biso      1.000     O          -0.645005           
         O40       1.0000    0.26970   0.31410   0.14203   Biso      1.000     O          -0.646543 