
##########################################################################
#               Crystallographic Information Format file
#               Produced by PyCifRW module
#
#  This is a CIF file.  CIF has been adopted by the International
#  Union of Crystallography as the standard for data archiving and
#  transmission.
#
#  For information on this file format, follow the CIF links at
#  http://www.iucr.org
##########################################################################

data_image0

_cell_length_a                          17.3288
_cell_length_b                          17.7491
_cell_length_c                          12.857
_cell_angle_alpha                       90
_cell_angle_beta                        126.53
_cell_angle_gamma                       90
_symmetry_space_group_name_H-M          'P 1'
_symmetry_int_tables_number             1
loop_
  _symmetry_equiv_pos_as_xyz
         'x, y, z' 
loop_
  _atom_site_label
  _atom_site_occupancy
  _atom_site_fract_x
  _atom_site_fract_y
  _atom_site_fract_z
  _atom_site_thermal_displace_type
  _atom_site_B_iso_or_equiv
  _atom_site_type_symbol
  _atom_site_charge
         C1        1.0000    0.15830   0.39430   0.49510   Biso      1.000     C          0.619201  
         C2        1.0000    0.09290   0.47870   0.98900   Biso      1.000     C          -0.101516           
         C3        1.0000    0.16500   0.53140   0.05730   Biso      1.000     C          -0.022386           
         C4        1.0000    0.09290   0.52130   0.48900   Biso      1.000     C          -0.101516           
         C5        1.0000    0.76030   0.48350   0.81520   Biso      1.000     C          -0.13505  
         C6        1.0000    0.84170   0.39430   0.00490   Biso      1.000     C          0.619201  
         C7        1.0000    0.83750   0.66806   0.75620   Biso      1.000     C          0.627673  
         C8        1.0000    0.97850   0.16800   0.03200   Biso      1.000     C          0.016784  
         C9        1.0000    0.09340   0.58650   0.54800   Biso      1.000     C          -0.103596           
         C10       1.0000    0.59110   0.40740   0.89670   Biso      1.000     C          -0.017824           
         C11       1.0000    0.56320   0.47130   0.92740   Biso      1.000     C          -0.168519           
         C12       1.0000    0.51380   0.46600   0.98120   Biso      1.000     C          0.088937  
         C13       1.0000    0.16700   0.60102   0.67560   Biso      1.000     C          -0.014866           
         C14       1.0000    0.49370   0.39400   0.00070   Biso      1.000     C          -0.154485           
         C15       1.0000    0.24130   0.55000   0.74290   Biso      1.000     C          -0.129528           
         C16       1.0000    0.52150   0.33200   0.96800   Biso      1.000     C          0.016792  
         C17       1.0000    0.66250   0.83194   0.24380   Biso      1.000     C          0.627673  
         C18       1.0000    0.65830   0.10570   0.99510   Biso      1.000     C          0.619201  
         C19       1.0000    0.73970   0.01650   0.18480   Biso      1.000     C          -0.135049           
         C20       1.0000    0.23970   0.48350   0.68480   Biso      1.000     C          -0.135048           
         C21       1.0000    0.74130   0.95000   0.24290   Biso      1.000     C          -0.129532           
         C22       1.0000    0.66700   0.89898   0.17560   Biso      1.000     C          -0.014863           
         C23       1.0000    0.59340   0.91350   0.04800   Biso      1.000     C          -0.103597           
         C24       1.0000    0.66250   0.16806   0.74380   Biso      1.000     C          0.627673  
         C25       1.0000    0.59290   0.97870   0.98900   Biso      1.000     C          -0.101513           
         C26       1.0000    0.66500   0.03140   0.05730   Biso      1.000     C          -0.022385           
         C27       1.0000    0.16500   0.46860   0.55730   Biso      1.000     C          -0.022385           
         C28       1.0000    0.16250   0.66806   0.74380   Biso      1.000     C          0.627673  
         C29       1.0000    0.09340   0.41350   0.04800   Biso      1.000     C          -0.103596           
         C30       1.0000    0.16700   0.39898   0.17560   Biso      1.000     C          -0.014866           
         C31       1.0000    0.73970   0.98350   0.68480   Biso      1.000     C          -0.135049           
         C32       1.0000    0.52150   0.66800   0.46800   Biso      1.000     C          0.016784  
         C33       1.0000    0.74130   0.05000   0.74290   Biso      1.000     C          -0.129532           
         C34       1.0000    0.66700   0.10102   0.67560   Biso      1.000     C          -0.014863           
         C35       1.0000    0.59340   0.08650   0.54800   Biso      1.000     C          -0.103597           
         C36       1.0000    0.49370   0.60600   0.50070   Biso      1.000     C          -0.154477           
         C37       1.0000    0.59290   0.02130   0.48900   Biso      1.000     C          -0.101513           
         C38       1.0000    0.66500   0.96860   0.55730   Biso      1.000     C          -0.022385           
         C39       1.0000    0.51380   0.53400   0.48120   Biso      1.000     C          0.088936  
         C40       1.0000    0.56320   0.52870   0.42740   Biso      1.000     C          -0.168519           
         C41       1.0000    0.83300   0.60102   0.82440   Biso      1.000     C          -0.014869           
         C42       1.0000    0.75870   0.55000   0.75710   Biso      1.000     C          -0.129526           
         C43       1.0000    0.59110   0.59260   0.39670   Biso      1.000     C          -0.017824           
         C44       1.0000    0.09110   0.90740   0.89670   Biso      1.000     C          -0.017824           
         C45       1.0000    0.06320   0.97130   0.92740   Biso      1.000     C          -0.168519           
         C46       1.0000    0.01380   0.96600   0.98120   Biso      1.000     C          0.088937  
         C47       1.0000    0.90660   0.58650   0.95200   Biso      1.000     C          -0.103597           
         C48       1.0000    0.99370   0.89400   0.00070   Biso      1.000     C          -0.154485           
         C49       1.0000    0.02150   0.83200   0.96800   Biso      1.000     C          0.016792  
         C50       1.0000    0.16250   0.33194   0.24380   Biso      1.000     C          0.627673  
         C51       1.0000    0.15830   0.60570   0.99510   Biso      1.000     C          0.619202  
         C52       1.0000    0.90710   0.52130   0.01100   Biso      1.000     C          -0.101513           
         C53       1.0000    0.23970   0.51650   0.18480   Biso      1.000     C          -0.135048           
         C54       1.0000    0.40890   0.59260   0.10330   Biso      1.000     C          -0.017824           
         C55       1.0000    0.24130   0.45000   0.24290   Biso      1.000     C          -0.129527           
         C56       1.0000    0.83500   0.46860   0.94270   Biso      1.000     C          -0.022385           
         C57       1.0000    0.02150   0.16800   0.46800   Biso      1.000     C          0.016784  
         C58       1.0000    0.65830   0.89430   0.49510   Biso      1.000     C          0.619202  
         C59       1.0000    0.33300   0.10102   0.82440   Biso      1.000     C          -0.014868           
         C60       1.0000    0.33500   0.03140   0.44270   Biso      1.000     C          -0.022386           
         C61       1.0000    0.83500   0.53140   0.44270   Biso      1.000     C          -0.022386           
         C62       1.0000    0.40710   0.02130   0.01100   Biso      1.000     C          -0.101517           
         C63       1.0000    0.40710   0.97870   0.51100   Biso      1.000     C          -0.101516           
         C64       1.0000    0.90890   0.09260   0.10330   Biso      1.000     C          -0.017824           
         C65       1.0000    0.40660   0.08650   0.95200   Biso      1.000     C          -0.103593           
         C66       1.0000    0.00630   0.10600   0.99930   Biso      1.000     C          -0.154477           
         C67       1.0000    0.25870   0.05000   0.75710   Biso      1.000     C          -0.129528           
         C68       1.0000    0.40890   0.40740   0.60330   Biso      1.000     C          -0.017824           
         C69       1.0000    0.43680   0.47130   0.57260   Biso      1.000     C          -0.168519           
         C70       1.0000    0.48620   0.46600   0.51880   Biso      1.000     C          0.088937  
         C71       1.0000    0.26030   0.98350   0.81520   Biso      1.000     C          -0.135048           
         C72       1.0000    0.50630   0.39400   0.49930   Biso      1.000     C          -0.154485           
         C73       1.0000    0.40660   0.91350   0.45200   Biso      1.000     C          -0.103596           
         C74       1.0000    0.47850   0.66800   0.03200   Biso      1.000     C          0.016784  
         C75       1.0000    0.47850   0.33200   0.53200   Biso      1.000     C          0.016792  
         C76       1.0000    0.33750   0.83194   0.25620   Biso      1.000     C          0.627673  
         C77       1.0000    0.34170   0.10570   0.50490   Biso      1.000     C          0.619202  
         C78       1.0000    0.34170   0.89430   0.00490   Biso      1.000     C          0.619201  
         C79       1.0000    0.33300   0.89898   0.32440   Biso      1.000     C          -0.014866           
         C80       1.0000    0.26030   0.01650   0.31520   Biso      1.000     C          -0.135048           
         C81       1.0000    0.33750   0.16806   0.75620   Biso      1.000     C          0.627673  
         C82       1.0000    0.33500   0.96860   0.94270   Biso      1.000     C          -0.022384           
         C83       1.0000    0.90710   0.47870   0.51100   Biso      1.000     C          -0.101515           
         C84       1.0000    0.50630   0.60600   0.99930   Biso      1.000     C          -0.154477           
         C85       1.0000    0.98620   0.03400   0.01880   Biso      1.000     C          0.088936  
         C86       1.0000    0.93680   0.02870   0.07260   Biso      1.000     C          -0.168519           
         C87       1.0000    0.99370   0.10600   0.50070   Biso      1.000     C          -0.154477           
         C88       1.0000    0.90890   0.90740   0.60330   Biso      1.000     C          -0.017824           
         C89       1.0000    0.43680   0.52870   0.07260   Biso      1.000     C          -0.168519           
         C90       1.0000    0.93680   0.97130   0.57260   Biso      1.000     C          -0.168519           
         C91       1.0000    0.98620   0.96600   0.51880   Biso      1.000     C          0.088937  
         C92       1.0000    0.01380   0.03400   0.48120   Biso      1.000     C          0.088936  
         C93       1.0000    0.00630   0.89400   0.49930   Biso      1.000     C          -0.154485           
         C94       1.0000    0.48620   0.53400   0.01880   Biso      1.000     C          0.088936  
         C95       1.0000    0.90660   0.41350   0.45200   Biso      1.000     C          -0.103596           
         C96       1.0000    0.06320   0.02870   0.42740   Biso      1.000     C          -0.168519           
         C97       1.0000    0.97850   0.83200   0.53200   Biso      1.000     C          0.016792  
         C98       1.0000    0.83750   0.33194   0.25620   Biso      1.000     C          0.627673  
         C99       1.0000    0.84170   0.60570   0.50490   Biso      1.000     C          0.619202  
         C100      1.0000    0.76030   0.51650   0.31520   Biso      1.000     C          -0.135047           
         C101      1.0000    0.09110   0.09260   0.39670   Biso      1.000     C          -0.017824           
         C102      1.0000    0.75870   0.45000   0.25710   Biso      1.000     C          -0.129533           
         C103      1.0000    0.83300   0.39898   0.32440   Biso      1.000     C          -0.014861           
         C104      1.0000    0.25870   0.95000   0.25710   Biso      1.000     C          -0.129527           
         H1        1.0000    0.49330   0.71580   0.01900   Biso      1.000     H          0.147265  
         H2        1.0000    0.53920   0.61210   0.96330   Biso      1.000     H          0.136678  
         H3        1.0000    0.42230   0.48140   0.08820   Biso      1.000     H          0.134787  
         H4        1.0000    0.50670   0.71580   0.48100   Biso      1.000     H          0.147265  
         H5        1.0000    0.46080   0.61210   0.53670   Biso      1.000     H          0.136678  
         H6        1.0000    0.00670   0.21580   0.48100   Biso      1.000     H          0.147265  
         H7        1.0000    0.62480   0.58830   0.36150   Biso      1.000     H          0.133957  
         H8        1.0000    0.95670   0.51280   0.09780   Biso      1.000     H          0.122299  
         H9        1.0000    0.21070   0.94880   0.76800   Biso      1.000     H          0.102214  
         H10       1.0000    0.20710   0.06030   0.67200   Biso      1.000     H          0.091079  
         H11       1.0000    0.45640   0.12100   0.99910   Biso      1.000     H          0.114842  
         H12       1.0000    0.45670   0.01280   0.09780   Biso      1.000     H          0.1223    
         H13       1.0000    0.04330   0.51280   0.40220   Biso      1.000     H          0.1223    
         H14       1.0000    0.12480   0.08830   0.36150   Biso      1.000     H          0.133957  
         H15       1.0000    0.04360   0.62100   0.50090   Biso      1.000     H          0.114842  
         H16       1.0000    0.07770   0.98140   0.41180   Biso      1.000     H          0.134787  
         H17       1.0000    0.29290   0.56030   0.82800   Biso      1.000     H          0.091079  
         H18       1.0000    0.28930   0.44880   0.73200   Biso      1.000     H          0.102214  
         H19       1.0000    0.96080   0.11210   0.53670   Biso      1.000     H          0.136678  
         H20       1.0000    0.57770   0.48140   0.41180   Biso      1.000     H          0.134787  
         H21       1.0000    0.29290   0.43970   0.32800   Biso      1.000     H          0.091079  
         H22       1.0000    0.37520   0.58830   0.13850   Biso      1.000     H          0.133957  
         H23       1.0000    0.79290   0.06030   0.82800   Biso      1.000     H          0.091079  
         H24       1.0000    0.99330   0.21580   0.01900   Biso      1.000     H          0.147265  
         H25       1.0000    0.03920   0.11210   0.96330   Biso      1.000     H          0.136678  
         H26       1.0000    0.87520   0.91170   0.63850   Biso      1.000     H          0.133957  
         H27       1.0000    0.92230   0.01860   0.58820   Biso      1.000     H          0.134787  
         H28       1.0000    0.78930   0.94880   0.73200   Biso      1.000     H          0.102214  
         H29       1.0000    0.99330   0.78420   0.51900   Biso      1.000     H          0.147265  
         H30       1.0000    0.71070   0.55120   0.26800   Biso      1.000     H          0.102214  
         H31       1.0000    0.70710   0.43970   0.17200   Biso      1.000     H          0.091079  
         H32       1.0000    0.95640   0.37900   0.49910   Biso      1.000     H          0.114842  
         H33       1.0000    0.54330   0.98720   0.90220   Biso      1.000     H          0.122299  
         H34       1.0000    0.95670   0.48720   0.59780   Biso      1.000     H          0.122299  
         H35       1.0000    0.87520   0.08830   0.13850   Biso      1.000     H          0.133957  
         H36       1.0000    0.37520   0.41170   0.63850   Biso      1.000     H          0.133957  
         H37       1.0000    0.42230   0.51860   0.58820   Biso      1.000     H          0.134787  
         H38       1.0000    0.53920   0.38790   0.46330   Biso      1.000     H          0.136679  
         H39       1.0000    0.49330   0.28420   0.51900   Biso      1.000     H          0.147264  
         H40       1.0000    0.21070   0.05120   0.26800   Biso      1.000     H          0.102214  
         H41       1.0000    0.20710   0.93970   0.17200   Biso      1.000     H          0.091079  
         H42       1.0000    0.45640   0.87900   0.49910   Biso      1.000     H          0.114842  
         H43       1.0000    0.45670   0.98720   0.59780   Biso      1.000     H          0.1223    
         H44       1.0000    0.92230   0.98140   0.08820   Biso      1.000     H          0.134787  
         H45       1.0000    0.54360   0.87900   0.00090   Biso      1.000     H          0.114843  
         H46       1.0000    0.03920   0.88790   0.46330   Biso      1.000     H          0.136679  
         H47       1.0000    0.78930   0.05120   0.23200   Biso      1.000     H          0.102214  
         H48       1.0000    0.00670   0.78420   0.98100   Biso      1.000     H          0.147265  
         H49       1.0000    0.79290   0.93970   0.32800   Biso      1.000     H          0.091079  
         H50       1.0000    0.28930   0.55120   0.23200   Biso      1.000     H          0.102214  
         H51       1.0000    0.12480   0.91170   0.86150   Biso      1.000     H          0.133957  
         H52       1.0000    0.70710   0.56030   0.67200   Biso      1.000     H          0.091079  
         H53       1.0000    0.95640   0.62100   0.99910   Biso      1.000     H          0.114842  
         H54       1.0000    0.54330   0.01280   0.40220   Biso      1.000     H          0.122299  
         H55       1.0000    0.54360   0.12100   0.50090   Biso      1.000     H          0.114842  
         H56       1.0000    0.96080   0.88790   0.03670   Biso      1.000     H          0.136679  
         H57       1.0000    0.04360   0.37900   0.00090   Biso      1.000     H          0.114842  
         H58       1.0000    0.04330   0.48720   0.90220   Biso      1.000     H          0.1223    
         H59       1.0000    0.71070   0.44880   0.76800   Biso      1.000     H          0.102214  
         H60       1.0000    0.62480   0.41170   0.86150   Biso      1.000     H          0.133957  
         H61       1.0000    0.57770   0.51860   0.91180   Biso      1.000     H          0.134787  
         H62       1.0000    0.46080   0.38790   0.03670   Biso      1.000     H          0.136679  
         H63       1.0000    0.50670   0.28420   0.98100   Biso      1.000     H          0.147264  
         H64       1.0000    0.07770   0.01860   0.91180   Biso      1.000     H          0.134787  
         Mg1       1.0000    0.25000   0.75000   0.00000   Biso      1.000     Mg          1.359297  
         Mg2       1.0000    0.50000   0.19483   0.75000   Biso      1.000     Mg          1.380772  
         Mg3       1.0000    0.50000   0.80517   0.25000   Biso      1.000     Mg          1.380772  
         Mg4       1.0000    0.00000   0.69483   0.75000   Biso      1.000     Mg          1.380772  
         Mg5       1.0000    0.75000   0.75000   0.50000   Biso      1.000     Mg          1.359297  
         Mg6       1.0000    0.00000   0.30517   0.25000   Biso      1.000     Mg          1.380772  
         Mg7       1.0000    0.25000   0.25000   0.50000   Biso      1.000     Mg          1.359297  
         Mg8       1.0000    0.75000   0.25000   0.00000   Biso      1.000     Mg          1.359297  
         N1        1.0000    0.43010   0.66056   0.08260   Biso      1.000     N          0.367776  
         N2        1.0000    0.56990   0.66056   0.41740   Biso      1.000     N          0.367776  
         N3        1.0000    0.43010   0.33944   0.58260   Biso      1.000     N          0.367775  
         N4        1.0000    0.93010   0.16056   0.08260   Biso      1.000     N          0.367776  
         N5        1.0000    0.06990   0.16056   0.41740   Biso      1.000     N          0.367776  
         N6        1.0000    0.06990   0.83944   0.91740   Biso      1.000     N          0.367775  
         N7        1.0000    0.56990   0.33944   0.91740   Biso      1.000     N          0.367775  
         N8        1.0000    0.93010   0.83944   0.58260   Biso      1.000     N          0.367775  
         O1        1.0000    0.77454   0.34709   0.93710   Biso      1.000     O          -0.665782           
         O2        1.0000    0.91385   0.38492   0.11930   Biso      1.000     O          -0.638666           
         O3        1.0000    0.76395   0.68616   0.64670   Biso      1.000     O          -0.641301           
         O4        1.0000    0.91793   0.70070   0.81410   Biso      1.000     O          -0.684631           
         O5        1.0000    0.90262   0.22125   0.11320   Biso      1.000     O          -0.595388           
         O6        1.0000    0.27454   0.15291   0.43710   Biso      1.000     O          -0.665782           
         O7        1.0000    0.41793   0.20070   0.81410   Biso      1.000     O          -0.684631           
         O8        1.0000    0.41385   0.11508   0.61930   Biso      1.000     O          -0.638666           
         O9        1.0000    0.26395   0.81384   0.14670   Biso      1.000     O          -0.641301           
         O10       1.0000    0.41793   0.79930   0.31410   Biso      1.000     O          -0.684631           
         O11       1.0000    0.40262   0.27875   0.61320   Biso      1.000     O          -0.595388           
         O12       1.0000    0.77454   0.65291   0.43710   Biso      1.000     O          -0.665782           
         O13       1.0000    0.91385   0.61508   0.61930   Biso      1.000     O          -0.638666           
         O14       1.0000    0.76395   0.31384   0.14670   Biso      1.000     O          -0.641301           
         O15       1.0000    0.91793   0.29930   0.31410   Biso      1.000     O          -0.684631           
         O16       1.0000    0.90262   0.77875   0.61320   Biso      1.000     O          -0.595388           
         O17       1.0000    0.72546   0.15291   0.06290   Biso      1.000     O          -0.665782           
         O18       1.0000    0.58615   0.11508   0.88070   Biso      1.000     O          -0.638666           
         O19       1.0000    0.73605   0.81384   0.35330   Biso      1.000     O          -0.641301           
         O20       1.0000    0.58207   0.79930   0.18590   Biso      1.000     O          -0.684631           
         O21       1.0000    0.59738   0.27875   0.88680   Biso      1.000     O          -0.595388           
         O22       1.0000    0.22546   0.65291   0.06290   Biso      1.000     O          -0.665782           
         O23       1.0000    0.08615   0.61508   0.88070   Biso      1.000     O          -0.638666           
         O24       1.0000    0.23605   0.31384   0.35330   Biso      1.000     O          -0.641301           
         O25       1.0000    0.26395   0.18616   0.64670   Biso      1.000     O          -0.641301           
         O26       1.0000    0.41385   0.88492   0.11930   Biso      1.000     O          -0.638666           
         O27       1.0000    0.27454   0.84709   0.93710   Biso      1.000     O          -0.665782           
         O28       1.0000    0.09738   0.22125   0.38680   Biso      1.000     O          -0.595388           
         O29       1.0000    0.08207   0.70070   0.68590   Biso      1.000     O          -0.684631           
         O30       1.0000    0.23605   0.68616   0.85330   Biso      1.000     O          -0.641301           
         O31       1.0000    0.40262   0.72125   0.11320   Biso      1.000     O          -0.595388           
         O32       1.0000    0.08615   0.38492   0.38070   Biso      1.000     O          -0.638666           
         O33       1.0000    0.59738   0.72125   0.38680   Biso      1.000     O          -0.595388           
         O34       1.0000    0.73605   0.18616   0.85330   Biso      1.000     O          -0.641301           
         O35       1.0000    0.58615   0.88492   0.38070   Biso      1.000     O          -0.638667           
         O36       1.0000    0.72546   0.84709   0.56290   Biso      1.000     O          -0.665782           
         O37       1.0000    0.09738   0.77875   0.88680   Biso      1.000     O          -0.595388           
         O38       1.0000    0.08207   0.29930   0.18590   Biso      1.000     O          -0.684631           
         O39       1.0000    0.22546   0.34709   0.56290   Biso      1.000     O          -0.665782           
         O40       1.0000    0.58207   0.20070   0.68590   Biso      1.000     O          -0.684631 