
##########################################################################
#               Crystallographic Information Format file
#               Produced by PyCifRW module
#
#  This is a CIF file.  CIF has been adopted by the International
#  Union of Crystallography as the standard for data archiving and
#  transmission.
#
#  For information on this file format, follow the CIF links at
#  http://www.iucr.org
##########################################################################

data_image0

_cell_length_a                          6.5175
_cell_length_b                          9.5054
_cell_length_c                          17.0878
_cell_angle_alpha                       90
_cell_angle_beta                        90
_cell_angle_gamma                       90
_symmetry_space_group_name_H-M          'P 1'
_symmetry_int_tables_number             1
loop_
  _symmetry_equiv_pos_as_xyz
         'x, y, z' 
loop_
  _atom_site_label
  _atom_site_occupancy
  _atom_site_fract_x
  _atom_site_fract_y
  _atom_site_fract_z
  _atom_site_thermal_displace_type
  _atom_site_B_iso_or_equiv
  _atom_site_type_symbol
  _atom_site_charge
         C1        1.0000    0.75000   0.79620   0.88660   Biso      1.000     C          0.07675499999999999           
         C2        1.0000    0.25000   0.06410   0.13470   Biso      1.000     C          0.097754  
         C3        1.0000    0.25000   0.01040   0.21710   Biso      1.000     C          0.610651  
         C4        1.0000    0.25000   0.36970   0.54810   Biso      1.000     C          0.5428    
         C5        1.0000    0.25000   0.49810   0.49520   Biso      1.000     C          0.036024  
         C6        1.0000    0.25000   0.64070   0.51620   Biso      1.000     C          0.057197000000000005          
         C7        1.0000    0.25000   0.69230   0.60000   Biso      1.000     C          0.612691  
         C8        1.0000    0.25000   0.20380   0.11340   Biso      1.000     C          0.07675599999999999           
         C9        1.0000    0.25000   0.56410   0.36530   Biso      1.000     C          0.097755  
         C10       1.0000    0.75000   0.13030   0.04810   Biso      1.000     C          0.542794  
         C11       1.0000    0.75000   0.00190   0.99520   Biso      1.000     C          0.036026  
         C12       1.0000    0.75000   0.85930   0.01620   Biso      1.000     C          0.057197000000000005          
         C13       1.0000    0.75000   0.80770   0.10000   Biso      1.000     C          0.612694  
         C14       1.0000    0.75000   0.93590   0.86530   Biso      1.000     C          0.097759  
         C15       1.0000    0.75000   0.98960   0.78290   Biso      1.000     C          0.6106520000000001  
         C16       1.0000    0.25000   0.51040   0.28290   Biso      1.000     C          0.610649  
         C17       1.0000    0.25000   0.19230   0.90000   Biso      1.000     C          0.612695  
         C18       1.0000    0.25000   0.70380   0.38660   Biso      1.000     C          0.07675599999999999           
         C19       1.0000    0.25000   0.99810   0.00480   Biso      1.000     C          0.036024  
         C20       1.0000    0.25000   0.86970   0.95190   Biso      1.000     C          0.542797  
         C21       1.0000    0.75000   0.48960   0.71710   Biso      1.000     C          0.610649  
         C22       1.0000    0.75000   0.43590   0.63470   Biso      1.000     C          0.097755  
         C23       1.0000    0.75000   0.29620   0.61340   Biso      1.000     C          0.076757  
         C24       1.0000    0.75000   0.30770   0.40000   Biso      1.000     C          0.612692  
         C25       1.0000    0.75000   0.35930   0.48380   Biso      1.000     C          0.057197000000000005          
         C26       1.0000    0.75000   0.50190   0.50480   Biso      1.000     C          0.036026  
         C27       1.0000    0.25000   0.14070   0.98380   Biso      1.000     C          0.057196000000000004          
         C28       1.0000    0.75000   0.63030   0.45190   Biso      1.000     C          0.5427960000000001  
         H1        1.0000    0.25000   0.27260   0.15210   Biso      1.000     H          0.128053  
         H2        1.0000    0.75000   0.22740   0.65210   Biso      1.000     H          0.128053  
         H3        1.0000    0.75000   0.72740   0.84790   Biso      1.000     H          0.128053  
         H4        1.0000    0.25000   0.77260   0.34790   Biso      1.000     H          0.128052  
         N1        1.0000    0.75000   0.75690   0.96240   Biso      1.000     N          -0.156135           
         N2        1.0000    0.75000   0.53540   0.58080   Biso      1.000     N          -0.24481799999999998          
         N3        1.0000    0.75000   0.25690   0.53760   Biso      1.000     N          -0.156135           
         N4        1.0000    0.25000   0.96460   0.08080   Biso      1.000     N          -0.244817           
         N5        1.0000    0.25000   0.24310   0.03760   Biso      1.000     N          -0.156132           
         N6        1.0000    0.25000   0.46460   0.41920   Biso      1.000     N          -0.244819           
         N7        1.0000    0.25000   0.74310   0.46240   Biso      1.000     N          -0.156133           
         N8        1.0000    0.75000   0.03540   0.91920   Biso      1.000     N          -0.24481799999999998          
         O1        1.0000    0.25000   0.75220   0.98830   Biso      1.000     O          -0.613067           
         O2        1.0000    0.25000   0.88680   0.88071   Biso      1.000     O          -0.37452199999999997          
         O3        1.0000    0.25000   0.09760   0.27070   Biso      1.000     O          -0.5248689999999999           
         O4        1.0000    0.75000   0.61950   0.72540   Biso      1.000     O          -0.513491           
         O5        1.0000    0.25000   0.88050   0.22540   Biso      1.000     O          -0.5134920000000001           
         O6        1.0000    0.75000   0.11320   0.11929   Biso      1.000     O          -0.37451599999999996          
         O7        1.0000    0.25000   0.38680   0.61929   Biso      1.000     O          -0.374521           
         O8        1.0000    0.75000   0.24780   0.01170   Biso      1.000     O          -0.613067           
         O9        1.0000    0.25000   0.59760   0.22930   Biso      1.000     O          -0.52486  
         O10       1.0000    0.25000   0.38050   0.27460   Biso      1.000     O          -0.51349  
         O11       1.0000    0.75000   0.40240   0.77070   Biso      1.000     O          -0.524864           
         O12       1.0000    0.25000   0.25220   0.51170   Biso      1.000     O          -0.6130680000000001           
         O13       1.0000    0.75000   0.61320   0.38071   Biso      1.000     O          -0.37451599999999996          
         O14       1.0000    0.75000   0.11950   0.77460   Biso      1.000     O          -0.513493           
         O15       1.0000    0.41950   0.21080   0.86752   Biso      1.000     O          -0.530145           
         O16       1.0000    0.58050   0.28920   0.36752   Biso      1.000     O          -0.530146           
         O17       1.0000    0.91950   0.78920   0.13248   Biso      1.000     O          -0.530144           
         O18       1.0000    0.08050   0.71080   0.63248   Biso      1.000     O          -0.530144           
         O19       1.0000    0.58050   0.78920   0.13248   Biso      1.000     O          -0.530144           
         O20       1.0000    0.41950   0.71080   0.63248   Biso      1.000     O          -0.530144           
         O21       1.0000    0.08050   0.21080   0.86752   Biso      1.000     O          -0.530145           
         O22       1.0000    0.91950   0.28920   0.36752   Biso      1.000     O          -0.530146           
         O23       1.0000    0.75000   0.90240   0.72930   Biso      1.000     O          -0.524867           
         O24       1.0000    0.75000   0.74780   0.48830   Biso      1.000     O          -0.6130680000000001           
         Yb1       1.0000    0.75000   0.28080   0.87912   Biso      1.000     Yb          1.325256  
         Yb2       1.0000    0.25000   0.21920   0.37912   Biso      1.000     Yb          1.325265  
         Yb3       1.0000    0.25000   0.71920   0.12088   Biso      1.000     Yb          1.325252  
         Yb4       1.0000    0.75000   0.78080   0.62088   Biso      1.000     Yb          1.3252620000000002 