
##########################################################################
#               Crystallographic Information Format file
#               Produced by PyCifRW module
#
#  This is a CIF file.  CIF has been adopted by the International
#  Union of Crystallography as the standard for data archiving and
#  transmission.
#
#  For information on this file format, follow the CIF links at
#  http://www.iucr.org
##########################################################################

data_image0

_cell_length_a                          6.5495
_cell_length_b                          9.5384
_cell_length_c                          17.1693
_cell_angle_alpha                       90
_cell_angle_beta                        90
_cell_angle_gamma                       90
_symmetry_space_group_name_H-M          'P 1'
_symmetry_int_tables_number             1
loop_
  _symmetry_equiv_pos_as_xyz
         'x, y, z' 
loop_
  _atom_site_label
  _atom_site_occupancy
  _atom_site_fract_x
  _atom_site_fract_y
  _atom_site_fract_z
  _atom_site_thermal_displace_type
  _atom_site_B_iso_or_equiv
  _atom_site_type_symbol
  _atom_site_charge
         C1        1.0000    0.75000   0.79730   0.88660   Biso      1.000     C          0.088501  
         C2        1.0000    0.25000   0.69160   0.59940   Biso      1.000     C          0.694461  
         C3        1.0000    0.25000   0.64030   0.51600   Biso      1.000     C          0.042044  
         C4        1.0000    0.25000   0.49790   0.49460   Biso      1.000     C          0.056409  
         C5        1.0000    0.25000   0.37090   0.54890   Biso      1.000     C          0.592403  
         C6        1.0000    0.25000   0.00820   0.21670   Biso      1.000     C          0.67893   
         C7        1.0000    0.25000   0.06220   0.13450   Biso      1.000     C          0.101684  
         C8        1.0000    0.25000   0.20270   0.11340   Biso      1.000     C          0.0885    
         C9        1.0000    0.25000   0.19160   0.90060   Biso      1.000     C          0.694461  
         C10       1.0000    0.25000   0.14030   0.98400   Biso      1.000     C          0.042044  
         C11       1.0000    0.25000   0.99790   0.00540   Biso      1.000     C          0.056408  
         C12       1.0000    0.25000   0.87090   0.95110   Biso      1.000     C          0.592405  
         C13       1.0000    0.75000   0.49180   0.71670   Biso      1.000     C          0.678931  
         C14       1.0000    0.75000   0.43780   0.63450   Biso      1.000     C          0.101684  
         C15       1.0000    0.75000   0.29730   0.61340   Biso      1.000     C          0.088501  
         C16       1.0000    0.75000   0.30840   0.40060   Biso      1.000     C          0.694461  
         C17       1.0000    0.75000   0.35970   0.48400   Biso      1.000     C          0.042044  
         C18       1.0000    0.75000   0.50210   0.50540   Biso      1.000     C          0.056409  
         C19       1.0000    0.75000   0.62910   0.45110   Biso      1.000     C          0.592403  
         C20       1.0000    0.25000   0.50820   0.28330   Biso      1.000     C          0.678931  
         C21       1.0000    0.75000   0.12910   0.04890   Biso      1.000     C          0.592405  
         C22       1.0000    0.75000   0.00210   0.99460   Biso      1.000     C          0.056408  
         C23       1.0000    0.75000   0.85970   0.01600   Biso      1.000     C          0.042044  
         C24       1.0000    0.75000   0.80840   0.09940   Biso      1.000     C          0.694461  
         C25       1.0000    0.75000   0.93780   0.86550   Biso      1.000     C          0.101684  
         C26       1.0000    0.75000   0.99180   0.78330   Biso      1.000     C          0.678931  
         C27       1.0000    0.25000   0.70270   0.38660   Biso      1.000     C          0.088501  
         C28       1.0000    0.25000   0.56220   0.36550   Biso      1.000     C          0.101684  
         Er1       1.0000    0.75000   0.78338   0.62035   Biso      1.000     Er          2.058014  
         Er2       1.0000    0.75000   0.28338   0.87965   Biso      1.000     Er          2.058014  
         Er3       1.0000    0.25000   0.21662   0.37965   Biso      1.000     Er          2.058012  
         Er4       1.0000    0.25000   0.71662   0.12035   Biso      1.000     Er          2.058013  
         H1        1.0000    0.25000   0.77110   0.34810   Biso      1.000     H          0.117555  
         H2        1.0000    0.25000   0.27110   0.15190   Biso      1.000     H          0.117555  
         H3        1.0000    0.75000   0.22890   0.65190   Biso      1.000     H          0.117554  
         H4        1.0000    0.75000   0.72890   0.84810   Biso      1.000     H          0.117555  
         N1        1.0000    0.75000   0.75860   0.96160   Biso      1.000     N          -0.261795           
         N2        1.0000    0.75000   0.03650   0.91943   Biso      1.000     N          -0.367097           
         N3        1.0000    0.25000   0.46350   0.41943   Biso      1.000     N          -0.367096           
         N4        1.0000    0.25000   0.74140   0.46160   Biso      1.000     N          -0.261794           
         N5        1.0000    0.25000   0.96350   0.08057   Biso      1.000     N          -0.367096           
         N6        1.0000    0.75000   0.25860   0.53840   Biso      1.000     N          -0.261794           
         N7        1.0000    0.75000   0.53650   0.58057   Biso      1.000     N          -0.367097           
         N8        1.0000    0.25000   0.24140   0.03840   Biso      1.000     N          -0.261794           
         O1        1.0000    0.25000   0.75370   0.98701   Biso      1.000     O          -0.749046           
         O2        1.0000    0.75000   0.24630   0.01299   Biso      1.000     O          -0.749046           
         O3        1.0000    0.25000   0.37820   0.27557   Biso      1.000     O          -0.590598           
         O4        1.0000    0.25000   0.59500   0.22986   Biso      1.000     O          -0.688996           
         O5        1.0000    0.25000   0.39000   0.61918   Biso      1.000     O          -0.480387           
         O6        1.0000    0.75000   0.11000   0.11918   Biso      1.000     O          -0.480388           
         O7        1.0000    0.25000   0.25370   0.51299   Biso      1.000     O          -0.749045           
         O8        1.0000    0.25000   0.87820   0.22443   Biso      1.000     O          -0.590597           
         O9        1.0000    0.25000   0.09500   0.27014   Biso      1.000     O          -0.688995           
         O10       1.0000    0.25000   0.89000   0.88082   Biso      1.000     O          -0.480388           
         O11       1.0000    0.75000   0.62180   0.72443   Biso      1.000     O          -0.590598           
         O12       1.0000    0.08160   0.71310   0.63078   Biso      1.000     O          -0.646042           
         O13       1.0000    0.75000   0.61000   0.38082   Biso      1.000     O          -0.480387           
         O14       1.0000    0.75000   0.74630   0.48701   Biso      1.000     O          -0.749045           
         O15       1.0000    0.41840   0.21310   0.86922   Biso      1.000     O          -0.646042           
         O16       1.0000    0.58160   0.28690   0.36922   Biso      1.000     O          -0.646042           
         O17       1.0000    0.91840   0.78690   0.13078   Biso      1.000     O          -0.646042           
         O18       1.0000    0.58160   0.78690   0.13078   Biso      1.000     O          -0.646042           
         O19       1.0000    0.41840   0.71310   0.63078   Biso      1.000     O          -0.646042           
         O20       1.0000    0.08160   0.21310   0.86922   Biso      1.000     O          -0.646042           
         O21       1.0000    0.91840   0.28690   0.36922   Biso      1.000     O          -0.646041           
         O22       1.0000    0.75000   0.90500   0.72986   Biso      1.000     O          -0.688996           
         O23       1.0000    0.75000   0.40500   0.77014   Biso      1.000     O          -0.688996           
         O24       1.0000    0.75000   0.12180   0.77557   Biso      1.000     O          -0.590598 