
##########################################################################
#               Crystallographic Information Format file
#               Produced by PyCifRW module
#
#  This is a CIF file.  CIF has been adopted by the International
#  Union of Crystallography as the standard for data archiving and
#  transmission.
#
#  For information on this file format, follow the CIF links at
#  http://www.iucr.org
##########################################################################

data_image0

_cell_length_a                          10.252
_cell_length_b                          13.228
_cell_length_c                          20.553
_cell_angle_alpha                       90
_cell_angle_beta                        90
_cell_angle_gamma                       90
_symmetry_space_group_name_H-M          'P 1'
_symmetry_int_tables_number             1
loop_
  _symmetry_equiv_pos_as_xyz
         'x, y, z' 
loop_
  _atom_site_label
  _atom_site_occupancy
  _atom_site_fract_x
  _atom_site_fract_y
  _atom_site_fract_z
  _atom_site_thermal_displace_type
  _atom_site_B_iso_or_equiv
  _atom_site_type_symbol
  _atom_site_charge
         C1        1.0000    0.68970   0.48040   0.27040   Biso      1.000     C          0.186167  
         C2        1.0000    0.92840   0.32170   0.54890   Biso      1.000     C          -0.188022           
         C3        1.0000    0.18970   0.51960   0.22960   Biso      1.000     C          0.186167  
         C4        1.0000    0.99370   0.40630   0.57070   Biso      1.000     C          0.169306  
         C5        1.0000    0.03470   0.40370   0.63480   Biso      1.000     C          -0.184924           
         C6        1.0000    0.01330   0.31950   0.67260   Biso      1.000     C          0.092011  
         C7        1.0000    0.01910   0.49470   0.53020   Biso      1.000     C          -0.112666           
         C8        1.0000    0.68970   0.01960   0.77040   Biso      1.000     C          0.186167  
         C9        1.0000    0.48090   0.49470   0.03020   Biso      1.000     C          -0.112665           
         C10       1.0000    0.48670   0.31950   0.17260   Biso      1.000     C          0.092007  
         C11       1.0000    0.64130   0.90640   0.69980   Biso      1.000     C          -0.035768           
         C12       1.0000    0.46530   0.40370   0.13480   Biso      1.000     C          -0.184923           
         C13       1.0000    0.50630   0.40630   0.07070   Biso      1.000     C          0.169307  
         C14       1.0000    0.74690   0.95640   0.67790   Biso      1.000     C          -0.042679           
         C15       1.0000    0.57160   0.32170   0.04890   Biso      1.000     C          -0.188021           
         C16       1.0000    0.55500   0.82540   0.67200   Biso      1.000     C          0.584627  
         C17       1.0000    0.58950   0.23970   0.08980   Biso      1.000     C          0.092864  
         C18       1.0000    0.16810   0.04410   0.38030   Biso      1.000     C          0.596255  
         C19       1.0000    0.50630   0.09370   0.57070   Biso      1.000     C          0.169305  
         C20       1.0000    0.25310   0.04360   0.32210   Biso      1.000     C          -0.042698           
         C21       1.0000    0.35870   0.09360   0.30020   Biso      1.000     C          -0.035749           
         C22       1.0000    0.83190   0.95590   0.61970   Biso      1.000     C          0.596252  
         C23       1.0000    0.14130   0.40640   0.30020   Biso      1.000     C          -0.035767           
         C24       1.0000    0.31030   0.98040   0.22960   Biso      1.000     C          0.186167  
         C25       1.0000    0.24690   0.45640   0.32210   Biso      1.000     C          -0.042679           
         C26       1.0000    0.33190   0.45590   0.38030   Biso      1.000     C          0.596252  
         C27       1.0000    0.58950   0.26030   0.58980   Biso      1.000     C          0.092861  
         C28       1.0000    0.16810   0.45590   0.88030   Biso      1.000     C          0.596255  
         C29       1.0000    0.44500   0.32540   0.82800   Biso      1.000     C          0.584625  
         C30       1.0000    0.25310   0.45640   0.82210   Biso      1.000     C          -0.042698           
         C31       1.0000    0.35870   0.40640   0.80020   Biso      1.000     C          -0.035748           
         C32       1.0000    0.46530   0.09630   0.63480   Biso      1.000     C          -0.184924           
         C33       1.0000    0.31030   0.51960   0.72960   Biso      1.000     C          0.186167  
         C34       1.0000    0.48670   0.18050   0.67260   Biso      1.000     C          0.092012  
         C35       1.0000    0.48090   0.00530   0.53020   Biso      1.000     C          -0.112666           
         C36       1.0000    0.18970   0.98040   0.72960   Biso      1.000     C          0.186167  
         C37       1.0000    0.14130   0.09360   0.80020   Biso      1.000     C          -0.035767           
         C38       1.0000    0.24690   0.04360   0.82210   Biso      1.000     C          -0.042679           
         C39       1.0000    0.01910   0.00530   0.03020   Biso      1.000     C          -0.112666           
         C40       1.0000    0.05500   0.17460   0.82800   Biso      1.000     C          0.584627  
         C41       1.0000    0.01330   0.18050   0.17260   Biso      1.000     C          0.092008  
         C42       1.0000    0.33190   0.04410   0.88030   Biso      1.000     C          0.596252  
         C43       1.0000    0.03470   0.09630   0.13480   Biso      1.000     C          -0.184923           
         C44       1.0000    0.99370   0.09370   0.07070   Biso      1.000     C          0.169307  
         C45       1.0000    0.91050   0.23970   0.58980   Biso      1.000     C          0.092864  
         C46       1.0000    0.92840   0.17830   0.04890   Biso      1.000     C          -0.188021           
         C47       1.0000    0.91050   0.26030   0.08980   Biso      1.000     C          0.092864  
         C48       1.0000    0.05500   0.32540   0.32800   Biso      1.000     C          0.584627  
         C49       1.0000    0.41050   0.76030   0.91020   Biso      1.000     C          0.092861  
         C50       1.0000    0.44500   0.17460   0.32800   Biso      1.000     C          0.584626  
         C51       1.0000    0.42840   0.67830   0.95110   Biso      1.000     C          -0.18802  
         C52       1.0000    0.85870   0.59360   0.69980   Biso      1.000     C          -0.035768           
         C53       1.0000    0.81030   0.01960   0.27040   Biso      1.000     C          0.186167  
         C54       1.0000    0.75310   0.54360   0.67790   Biso      1.000     C          -0.042679           
         C55       1.0000    0.66810   0.54410   0.61970   Biso      1.000     C          0.596252  
         C56       1.0000    0.08950   0.73970   0.91020   Biso      1.000     C          0.092861  
         C57       1.0000    0.07160   0.82170   0.95110   Biso      1.000     C          -0.18802  
         C58       1.0000    0.00630   0.90630   0.92930   Biso      1.000     C          0.169302  
         C59       1.0000    0.96530   0.90370   0.86520   Biso      1.000     C          -0.184924           
         C60       1.0000    0.51910   0.99470   0.46980   Biso      1.000     C          -0.112624           
         C61       1.0000    0.85870   0.90640   0.19980   Biso      1.000     C          -0.035768           
         C62       1.0000    0.51330   0.81950   0.32740   Biso      1.000     C          0.092007  
         C63       1.0000    0.53470   0.90370   0.36520   Biso      1.000     C          -0.184923           
         C64       1.0000    0.49370   0.90630   0.42930   Biso      1.000     C          0.169303  
         C65       1.0000    0.42840   0.82170   0.45110   Biso      1.000     C          -0.188021           
         C66       1.0000    0.98090   0.99470   0.96980   Biso      1.000     C          -0.112625           
         C67       1.0000    0.41050   0.73970   0.41020   Biso      1.000     C          0.092864  
         C68       1.0000    0.83190   0.54410   0.11970   Biso      1.000     C          0.596255  
         C69       1.0000    0.55500   0.67460   0.17200   Biso      1.000     C          0.584625  
         C70       1.0000    0.74690   0.54360   0.17790   Biso      1.000     C          -0.042698           
         C71       1.0000    0.64130   0.59360   0.19980   Biso      1.000     C          -0.035749           
         C72       1.0000    0.98670   0.81950   0.82740   Biso      1.000     C          0.092012  
         C73       1.0000    0.75310   0.95640   0.17790   Biso      1.000     C          -0.042679           
         C74       1.0000    0.94500   0.67460   0.67200   Biso      1.000     C          0.584627  
         C75       1.0000    0.57160   0.17830   0.54890   Biso      1.000     C          -0.188019           
         C76       1.0000    0.98670   0.68050   0.32740   Biso      1.000     C          0.092008  
         C77       1.0000    0.94500   0.82540   0.17200   Biso      1.000     C          0.584628  
         C78       1.0000    0.96530   0.59630   0.36520   Biso      1.000     C          -0.184923           
         C79       1.0000    0.00630   0.59370   0.42930   Biso      1.000     C          0.169304  
         C80       1.0000    0.81030   0.48040   0.77040   Biso      1.000     C          0.186167  
         C81       1.0000    0.98090   0.50530   0.46980   Biso      1.000     C          -0.112624           
         C82       1.0000    0.51330   0.68050   0.82740   Biso      1.000     C          0.092008  
         C83       1.0000    0.07160   0.67830   0.45110   Biso      1.000     C          -0.188021           
         C84       1.0000    0.53470   0.59630   0.86520   Biso      1.000     C          -0.184923           
         C85       1.0000    0.49370   0.59370   0.92930   Biso      1.000     C          0.169305  
         C86       1.0000    0.08950   0.76030   0.41020   Biso      1.000     C          0.092864  
         C87       1.0000    0.66810   0.95590   0.11970   Biso      1.000     C          0.596253  
         C88       1.0000    0.51910   0.50530   0.96980   Biso      1.000     C          -0.112625           
         H1        1.0000    0.54200   0.68020   0.78450   Biso      1.000     H          0.097129  
         H2        1.0000    0.95800   0.81980   0.78450   Biso      1.000     H          0.097129  
         H3        1.0000    0.42290   0.04060   0.65250   Biso      1.000     H          0.127138  
         H4        1.0000    0.45800   0.18020   0.71550   Biso      1.000     H          0.097129  
         H5        1.0000    0.39630   0.68030   0.99340   Biso      1.000     H          0.138605  
         H6        1.0000    0.93410   0.04770   0.95130   Biso      1.000     H          0.120413  
         H7        1.0000    0.57710   0.54060   0.84750   Biso      1.000     H          0.127138  
         H8        1.0000    0.89630   0.31970   0.50660   Biso      1.000     H          0.138605  
         H9        1.0000    0.18720   0.94020   0.69250   Biso      1.000     H          0.102702  
         H10       1.0000    0.92290   0.95940   0.84750   Biso      1.000     H          0.127138  
         H11       1.0000    0.68720   0.05980   0.80750   Biso      1.000     H          0.102702  
         H12       1.0000    0.10370   0.81970   0.99340   Biso      1.000     H          0.138606  
         H13       1.0000    0.13370   0.68350   0.92610   Biso      1.000     H          0.097655  
         H14       1.0000    0.86630   0.18350   0.57390   Biso      1.000     H          0.097655  
         H15       1.0000    0.81280   0.44020   0.80750   Biso      1.000     H          0.102702  
         H16       1.0000    0.06590   0.54770   0.54870   Biso      1.000     H          0.120415  
         H17       1.0000    0.36630   0.81650   0.92610   Biso      1.000     H          0.097654  
         H18       1.0000    0.04200   0.31980   0.71550   Biso      1.000     H          0.097129  
         H19       1.0000    0.07710   0.45940   0.65250   Biso      1.000     H          0.127138  
         H20       1.0000    0.43410   0.95230   0.54870   Biso      1.000     H          0.120415  
         H21       1.0000    0.56590   0.45230   0.95130   Biso      1.000     H          0.120412  
         H22       1.0000    0.31280   0.55980   0.69250   Biso      1.000     H          0.102702  
         H23       1.0000    0.63370   0.31650   0.57390   Biso      1.000     H          0.097655  
         H24       1.0000    0.43410   0.54770   0.04870   Biso      1.000     H          0.120414  
         H25       1.0000    0.45800   0.31980   0.21550   Biso      1.000     H          0.09713   
         H26       1.0000    0.60370   0.31970   0.00660   Biso      1.000     H          0.138605  
         H27       1.0000    0.63370   0.18350   0.07390   Biso      1.000     H          0.097655  
         H28       1.0000    0.31280   0.94020   0.19250   Biso      1.000     H          0.102702  
         H29       1.0000    0.60370   0.18030   0.50660   Biso      1.000     H          0.138605  
         H30       1.0000    0.93410   0.45230   0.45130   Biso      1.000     H          0.120412  
         H31       1.0000    0.95800   0.68020   0.28450   Biso      1.000     H          0.097129  
         H32       1.0000    0.18720   0.55980   0.19250   Biso      1.000     H          0.102702  
         H33       1.0000    0.92290   0.54060   0.34750   Biso      1.000     H          0.127138  
         H34       1.0000    0.13370   0.81650   0.42610   Biso      1.000     H          0.097655  
         H35       1.0000    0.81280   0.05980   0.30750   Biso      1.000     H          0.102702  
         H36       1.0000    0.56590   0.04770   0.45130   Biso      1.000     H          0.120412  
         H37       1.0000    0.54200   0.81980   0.28450   Biso      1.000     H          0.097129  
         H38       1.0000    0.57710   0.95940   0.34750   Biso      1.000     H          0.127138  
         H39       1.0000    0.39630   0.81970   0.49340   Biso      1.000     H          0.138605  
         H40       1.0000    0.36630   0.68350   0.42610   Biso      1.000     H          0.097655  
         H41       1.0000    0.68720   0.44020   0.30750   Biso      1.000     H          0.102702  
         H42       1.0000    0.10370   0.68030   0.49340   Biso      1.000     H          0.138605  
         H43       1.0000    0.86630   0.31650   0.07390   Biso      1.000     H          0.097655  
         H44       1.0000    0.42290   0.45940   0.15250   Biso      1.000     H          0.127138  
         H45       1.0000    0.07710   0.04060   0.15250   Biso      1.000     H          0.127138  
         H46       1.0000    0.89630   0.18030   0.00660   Biso      1.000     H          0.138605  
         H47       1.0000    0.06590   0.95230   0.04870   Biso      1.000     H          0.120415  
         H48       1.0000    0.04200   0.18020   0.21550   Biso      1.000     H          0.097129  
         N1        1.0000    0.60460   0.55460   0.25870   Biso      1.000     N          -0.326078           
         N2        1.0000    0.77650   0.47000   0.22460   Biso      1.000     N          -0.316294           
         N3        1.0000    0.45320   0.73790   0.34990   Biso      1.000     N          -0.194612           
         N4        1.0000    0.39540   0.44540   0.74130   Biso      1.000     N          -0.326078           
         N5        1.0000    0.22350   0.53000   0.77540   Biso      1.000     N          -0.316294           
         N6        1.0000    0.54680   0.26210   0.65010   Biso      1.000     N          -0.194612           
         N7        1.0000    0.72350   0.47000   0.72460   Biso      1.000     N          -0.316296           
         N8        1.0000    0.77650   0.03000   0.72460   Biso      1.000     N          -0.316295           
         N9        1.0000    0.60460   0.94540   0.75870   Biso      1.000     N          -0.326076           
         N10       1.0000    0.72350   0.03000   0.22460   Biso      1.000     N          -0.316295           
         N11       1.0000    0.04680   0.76210   0.34990   Biso      1.000     N          -0.194612           
         N12       1.0000    0.95320   0.26210   0.15010   Biso      1.000     N          -0.194613           
         N13       1.0000    0.27650   0.53000   0.27540   Biso      1.000     N          -0.316296           
         N14       1.0000    0.89540   0.55460   0.75870   Biso      1.000     N          -0.326076           
         N15       1.0000    0.45320   0.76210   0.84990   Biso      1.000     N          -0.194612           
         N16       1.0000    0.89540   0.94540   0.25870   Biso      1.000     N          -0.326076           
         N17       1.0000    0.04680   0.73790   0.84990   Biso      1.000     N          -0.194613           
         N18       1.0000    0.54680   0.23790   0.15010   Biso      1.000     N          -0.194611           
         N19       1.0000    0.39540   0.05460   0.24130   Biso      1.000     N          -0.326077           
         N20       1.0000    0.10460   0.05460   0.74130   Biso      1.000     N          -0.326076           
         N21       1.0000    0.27650   0.97000   0.77540   Biso      1.000     N          -0.316296           
         N22       1.0000    0.95320   0.23790   0.65010   Biso      1.000     N          -0.194612           
         N23       1.0000    0.22350   0.97000   0.27540   Biso      1.000     N          -0.316294           
         N24       1.0000    0.10460   0.44540   0.24130   Biso      1.000     N          -0.326076           
         O1        1.0000    0.19380   0.10300   0.42720   Biso      1.000     O          -0.593626           
         O2        1.0000    0.92430   0.48070   0.11990   Biso      1.000     O          -0.521115           
         O3        1.0000    0.41650   0.22190   0.37800   Biso      1.000     O          -0.577166           
         O4        1.0000    0.42430   0.51930   0.38010   Biso      1.000     O          -0.521114           
         O5        1.0000    0.45070   0.68950   0.20350   Biso      1.000     O          -0.535487           
         O6        1.0000    0.58350   0.72190   0.12200   Biso      1.000     O          -0.577166           
         O7        1.0000    0.57570   0.48070   0.61990   Biso      1.000     O          -0.521114           
         O8        1.0000    0.30620   0.39700   0.42720   Biso      1.000     O          -0.593626           
         O9        1.0000    0.95070   0.31050   0.29650   Biso      1.000     O          -0.535487           
         O10       1.0000    0.08350   0.27810   0.37800   Biso      1.000     O          -0.577167           
         O11       1.0000    0.07570   0.98070   0.38010   Biso      1.000     O          -0.521115           
         O12       1.0000    0.91650   0.72190   0.62200   Biso      1.000     O          -0.577166           
         O13       1.0000    0.54930   0.18950   0.29650   Biso      1.000     O          -0.535486           
         O14       1.0000    0.80620   0.60300   0.07280   Biso      1.000     O          -0.593626           
         O15       1.0000    0.04930   0.68950   0.70350   Biso      1.000     O          -0.535487           
         O16       1.0000    0.45070   0.81050   0.70350   Biso      1.000     O          -0.535487           
         O17       1.0000    0.08350   0.22190   0.87800   Biso      1.000     O          -0.577166           
         O18       1.0000    0.95070   0.18950   0.79650   Biso      1.000     O          -0.535486           
         O19       1.0000    0.41650   0.27810   0.87800   Biso      1.000     O          -0.577166           
         O20       1.0000    0.91650   0.77810   0.12200   Biso      1.000     O          -0.577166           
         O21       1.0000    0.04930   0.81050   0.20350   Biso      1.000     O          -0.535487           
         O22       1.0000    0.69380   0.60300   0.57280   Biso      1.000     O          -0.593626           
         O23       1.0000    0.57570   0.01930   0.11990   Biso      1.000     O          -0.521114           
         O24       1.0000    0.69380   0.89700   0.07280   Biso      1.000     O          -0.593626           
         O25       1.0000    0.42430   0.98070   0.88010   Biso      1.000     O          -0.521115           
         O26       1.0000    0.54930   0.31050   0.79650   Biso      1.000     O          -0.535486           
         O27       1.0000    0.19380   0.39700   0.92720   Biso      1.000     O          -0.593626           
         O28       1.0000    0.07570   0.51930   0.88010   Biso      1.000     O          -0.521115           
         O29       1.0000    0.92430   0.01930   0.61990   Biso      1.000     O          -0.521114           
         O30       1.0000    0.80620   0.89700   0.57280   Biso      1.000     O          -0.593626           
         O31       1.0000    0.30620   0.10300   0.92720   Biso      1.000     O          -0.593626           
         O32       1.0000    0.58350   0.77810   0.62200   Biso      1.000     O          -0.577166           
         Zn1       1.0000    0.06298   0.61067   0.79377   Biso      1.000     Zn          0.689966  
         Zn2       1.0000    0.75000   0.75000   0.07546   Biso      1.000     Zn          1.067161  
         Zn3       1.0000    0.25000   0.25000   0.42454   Biso      1.000     Zn          1.067161  
         Zn4       1.0000    0.06298   0.88933   0.29377   Biso      1.000     Zn          0.689967  
         Zn5       1.0000    0.43702   0.88933   0.79377   Biso      1.000     Zn          0.689967  
         Zn6       1.0000    0.93702   0.11067   0.70623   Biso      1.000     Zn          0.689964  
         Zn7       1.0000    0.56298   0.11067   0.20623   Biso      1.000     Zn          0.689964  
         Zn8       1.0000    0.56298   0.38933   0.70623   Biso      1.000     Zn          0.689967  
         Zn9       1.0000    0.93702   0.38933   0.20623   Biso      1.000     Zn          0.689967  
         Zn10      1.0000    0.25000   0.25000   0.92454   Biso      1.000     Zn          1.067161  
         Zn11      1.0000    0.43702   0.61067   0.29377   Biso      1.000     Zn          0.689966  
         Zn12      1.0000    0.75000   0.75000   0.57546   Biso      1.000     Zn          1.067161 