
##########################################################################
#               Crystallographic Information Format file
#               Produced by PyCifRW module
#
#  This is a CIF file.  CIF has been adopted by the International
#  Union of Crystallography as the standard for data archiving and
#  transmission.
#
#  For information on this file format, follow the CIF links at
#  http://www.iucr.org
##########################################################################

data_image0

_cell_length_a                          9.0722
_cell_length_b                          9.0722
_cell_length_c                          14.582
_cell_angle_alpha                       79.9172
_cell_angle_beta                        79.9176
_cell_angle_gamma                       115.926
_symmetry_space_group_name_H-M          'P 1'
_symmetry_int_tables_number             1
loop_
  _symmetry_equiv_pos_as_xyz
         'x, y, z' 
loop_
  _atom_site_label
  _atom_site_occupancy
  _atom_site_fract_x
  _atom_site_fract_y
  _atom_site_fract_z
  _atom_site_thermal_displace_type
  _atom_site_B_iso_or_equiv
  _atom_site_type_symbol
  _atom_site_charge
         C1        1.0000    0.96100   0.79020   0.92100   Biso      1.000     C          -0.318592           
         C2        1.0000    0.21120   0.88200   0.57900   Biso      1.000     C          -0.319659           
         C3        1.0000    0.06150   0.74470   0.56220   Biso      1.000     C          0.72653   
         C4        1.0000    0.42540   0.57460   0.25000   Biso      1.000     C          0.531944  
         C5        1.0000    0.80690   0.62370   0.93780   Biso      1.000     C          0.728729  
         C6        1.0000    0.11800   0.78880   0.92100   Biso      1.000     C          -0.319659           
         C7        1.0000    0.25530   0.93850   0.93780   Biso      1.000     C          0.726507  
         C8        1.0000    0.79020   0.96100   0.42100   Biso      1.000     C          -0.318594           
         C9        1.0000    0.62370   0.80690   0.43780   Biso      1.000     C          0.728738  
         C10       1.0000    0.78880   0.11800   0.42100   Biso      1.000     C          -0.319659           
         C11       1.0000    0.93850   0.25530   0.43780   Biso      1.000     C          0.72653   
         C12       1.0000    0.03900   0.20980   0.07900   Biso      1.000     C          -0.318592           
         C13       1.0000    0.19310   0.37630   0.06220   Biso      1.000     C          0.728729  
         C14       1.0000    0.88200   0.21120   0.07900   Biso      1.000     C          -0.319659           
         C15       1.0000    0.74470   0.06150   0.06220   Biso      1.000     C          0.726508  
         C16       1.0000    0.37630   0.19310   0.56220   Biso      1.000     C          0.728738  
         C17       1.0000    0.20980   0.03900   0.57900   Biso      1.000     C          -0.318594           
         C18       1.0000    0.67540   0.32460   0.75000   Biso      1.000     C          0.531053  
         C19       1.0000    0.57460   0.42540   0.75000   Biso      1.000     C          0.531943  
         C20       1.0000    0.32460   0.67540   0.25000   Biso      1.000     C          0.531053  
         H1        1.0000    0.97810   0.86390   0.85880   Biso      1.000     H          0.13973   
         H2        1.0000    0.90780   0.31240   0.02960   Biso      1.000     H          0.139737  
         H3        1.0000    0.83690   0.22270   0.14120   Biso      1.000     H          0.139547  
         H4        1.0000    0.06260   0.15800   0.02960   Biso      1.000     H          0.13939300000000002           
         H5        1.0000    0.02190   0.13610   0.14120   Biso      1.000     H          0.13973   
         H6        1.0000    0.31240   0.90780   0.52960   Biso      1.000     H          0.139743  
         H7        1.0000    0.68760   0.09220   0.47040   Biso      1.000     H          0.139743  
         H8        1.0000    0.84200   0.93740   0.47040   Biso      1.000     H          0.13939200000000002           
         H9        1.0000    0.86390   0.97810   0.35880   Biso      1.000     H          0.139739  
         H10       1.0000    0.09220   0.68760   0.97040   Biso      1.000     H          0.139737  
         H11       1.0000    0.16310   0.77730   0.85880   Biso      1.000     H          0.139547  
         H12       1.0000    0.93740   0.84200   0.97040   Biso      1.000     H          0.13939300000000002           
         H13       1.0000    0.13610   0.02190   0.64120   Biso      1.000     H          0.139739  
         H14       1.0000    0.15800   0.06260   0.52960   Biso      1.000     H          0.13939200000000002           
         H15       1.0000    0.77730   0.16310   0.35880   Biso      1.000     H          0.139536  
         H16       1.0000    0.22270   0.83690   0.64120   Biso      1.000     H          0.139536  
         Nd1       1.0000    0.49059   0.74059   0.01882   Biso      1.000     Nd          2.094893  
         Nd2       1.0000    0.74059   0.49059   0.51882   Biso      1.000     Nd          2.094896  
         Nd3       1.0000    0.50941   0.25941   0.98118   Biso      1.000     Nd          2.094894  
         Nd4       1.0000    0.25941   0.50941   0.48118   Biso      1.000     Nd          2.094896  
         O1        1.0000    0.50171   0.18529   0.57900   Biso      1.000     O          -0.61953  
         O2        1.0000    0.56771   0.49023   0.67026   Biso      1.000     O          -0.61044  
         O3        1.0000    0.08584   0.63412   0.53284   Biso      1.000     O          -0.7701640000000001           
         O4        1.0000    0.91929   0.73571   0.57900   Biso      1.000     O          -0.619378           
         O5        1.0000    0.66049   0.23797   0.82974   Biso      1.000     O          -0.610064           
         O6        1.0000    0.66696   0.61868   0.96716   Biso      1.000     O          -0.7722359999999999           
         O7        1.0000    0.81471   0.49829   0.92100   Biso      1.000     O          -0.619526           
         O8        1.0000    0.50977   0.43229   0.82974   Biso      1.000     O          -0.610434           
         O9        1.0000    0.36588   0.91416   0.96716   Biso      1.000     O          -0.7701479999999999           
         O10       1.0000    0.26429   0.08071   0.92100   Biso      1.000     O          -0.6193770000000001           
         O11       1.0000    0.23797   0.66049   0.32974   Biso      1.000     O          -0.610058           
         O12       1.0000    0.61868   0.66696   0.46716   Biso      1.000     O          -0.772247           
         O13       1.0000    0.49829   0.81471   0.42100   Biso      1.000     O          -0.61953  
         O14       1.0000    0.43229   0.50977   0.32974   Biso      1.000     O          -0.61044  
         O15       1.0000    0.91416   0.36588   0.46716   Biso      1.000     O          -0.7701640000000001           
         O16       1.0000    0.08071   0.26429   0.42100   Biso      1.000     O          -0.619378           
         O17       1.0000    0.33951   0.76203   0.17026   Biso      1.000     O          -0.610064           
         O18       1.0000    0.33304   0.38132   0.03284   Biso      1.000     O          -0.7722359999999999           
         O19       1.0000    0.18529   0.50171   0.07900   Biso      1.000     O          -0.619526           
         O20       1.0000    0.49023   0.56771   0.17026   Biso      1.000     O          -0.610434           
         O21       1.0000    0.63412   0.08584   0.03284   Biso      1.000     O          -0.770149           
         O22       1.0000    0.73571   0.91929   0.07900   Biso      1.000     O          -0.6193770000000001           
         O23       1.0000    0.38132   0.33304   0.53284   Biso      1.000     O          -0.772247           
         O24       1.0000    0.76203   0.33951   0.67026   Biso      1.000     O          -0.610058 