
##########################################################################
#               Crystallographic Information Format file
#               Produced by PyCifRW module
#
#  This is a CIF file.  CIF has been adopted by the International
#  Union of Crystallography as the standard for data archiving and
#  transmission.
#
#  For information on this file format, follow the CIF links at
#  http://www.iucr.org
##########################################################################

data_image0

_cell_length_a                          13.0913
_cell_length_b                          13.2087
_cell_length_c                          26.916
_cell_angle_alpha                       90
_cell_angle_beta                        90
_cell_angle_gamma                       90
_symmetry_space_group_name_H-M          'P 1'
_symmetry_int_tables_number             1
loop_
  _symmetry_equiv_pos_as_xyz
         'x, y, z' 
loop_
  _atom_site_label
  _atom_site_occupancy
  _atom_site_fract_x
  _atom_site_fract_y
  _atom_site_fract_z
  _atom_site_thermal_displace_type
  _atom_site_B_iso_or_equiv
  _atom_site_type_symbol
  _atom_site_charge
         C1        1.0000    0.08910   0.37020   0.20010   Biso      1.000     C          0.583958  
         C2        1.0000    0.01940   0.87000   0.77590   Biso      1.000     C          0.0905    
         C3        1.0000    0.89130   0.97840   0.75400   Biso      1.000     C          0.055367  
         C4        1.0000    0.41090   0.87020   0.79990   Biso      1.000     C          0.583953  
         C5        1.0000    0.45530   0.96100   0.77410   Biso      1.000     C          -0.087419           
         C6        1.0000    0.55890   0.98700   0.77650   Biso      1.000     C          0.031336  
         C7        1.0000    0.64000   0.92300   0.80000   Biso      1.000     C          0.594296  
         C8        1.0000    0.40100   0.98010   0.54820   Biso      1.000     C          -0.18358  
         C9        1.0000    0.47620   0.02400   0.52170   Biso      1.000     C          0.117325  
         C10       1.0000    0.50940   0.11260   0.54100   Biso      1.000     C          -0.18492  
         C11       1.0000    0.59010   0.07260   0.75080   Biso      1.000     C          -0.158996           
         C12       1.0000    0.46350   0.15460   0.58150   Biso      1.000     C          0.099582  
         C13       1.0000    0.94110   0.48700   0.22350   Biso      1.000     C          0.031325  
         C14       1.0000    0.04470   0.46100   0.22590   Biso      1.000     C          -0.087424           
         C15       1.0000    0.60870   0.47840   0.24600   Biso      1.000     C          0.055364  
         C16       1.0000    0.48060   0.37000   0.22410   Biso      1.000     C          0.0905    
         C17       1.0000    0.90990   0.57260   0.24920   Biso      1.000     C          -0.158998           
         C18       1.0000    0.64530   0.47060   0.08870   Biso      1.000     C          0.103681  
         C19       1.0000    0.59900   0.51990   0.04820   Biso      1.000     C          -0.18358  
         C20       1.0000    0.52380   0.47600   0.02170   Biso      1.000     C          0.117325  
         C21       1.0000    0.49060   0.38740   0.04100   Biso      1.000     C          -0.18492  
         C22       1.0000    0.86000   0.42300   0.20000   Biso      1.000     C          0.594282  
         C23       1.0000    0.53650   0.34540   0.08150   Biso      1.000     C          0.099582  
         C24       1.0000    0.85470   0.97060   0.91130   Biso      1.000     C          0.103669  
         C25       1.0000    0.97620   0.97600   0.97830   Biso      1.000     C          0.117314  
         C26       1.0000    0.51940   0.13000   0.72410   Biso      1.000     C          0.0905    
         C27       1.0000    0.39130   0.02160   0.74600   Biso      1.000     C          0.055364  
         C28       1.0000    0.91090   0.12980   0.70010   Biso      1.000     C          0.583958  
         C29       1.0000    0.95530   0.03900   0.72590   Biso      1.000     C          -0.087424           
         C30       1.0000    0.05890   0.01300   0.72350   Biso      1.000     C          0.031326  
         C31       1.0000    0.14000   0.07700   0.70000   Biso      1.000     C          0.594282  
         C32       1.0000    0.03650   0.65460   0.41850   Biso      1.000     C          0.099557  
         C33       1.0000    0.99060   0.61260   0.45900   Biso      1.000     C          -0.184916           
         C34       1.0000    0.02380   0.52400   0.47830   Biso      1.000     C          0.117327  
         C35       1.0000    0.90100   0.01990   0.95180   Biso      1.000     C          -0.183554           
         C36       1.0000    0.09900   0.48010   0.45180   Biso      1.000     C          -0.183555           
         C37       1.0000    0.40990   0.42740   0.25080   Biso      1.000     C          -0.158997           
         C38       1.0000    0.98060   0.63000   0.27590   Biso      1.000     C          0.0905    
         C39       1.0000    0.10870   0.52160   0.25400   Biso      1.000     C          0.055367  
         C40       1.0000    0.58910   0.62980   0.29990   Biso      1.000     C          0.583953  
         C41       1.0000    0.54470   0.53900   0.27410   Biso      1.000     C          -0.08742  
         C42       1.0000    0.44110   0.51300   0.27650   Biso      1.000     C          0.031337  
         C43       1.0000    0.36000   0.57700   0.30000   Biso      1.000     C          0.594296  
         C44       1.0000    0.96350   0.84540   0.91850   Biso      1.000     C          0.099555  
         C45       1.0000    0.00940   0.88740   0.95900   Biso      1.000     C          -0.184902           
         C46       1.0000    0.14530   0.52940   0.41130   Biso      1.000     C          0.10367   
         C47       1.0000    0.36000   0.07700   0.20000   Biso      1.000     C          0.594282  
         C48       1.0000    0.44110   0.01300   0.22350   Biso      1.000     C          0.031325  
         C49       1.0000    0.54470   0.03900   0.22590   Biso      1.000     C          -0.087424           
         C50       1.0000    0.60870   0.97840   0.25400   Biso      1.000     C          0.055367  
         C51       1.0000    0.48060   0.87000   0.27590   Biso      1.000     C          0.0905    
         C52       1.0000    0.90990   0.07260   0.25080   Biso      1.000     C          -0.158997           
         C53       1.0000    0.64530   0.97060   0.41130   Biso      1.000     C          0.103672  
         C54       1.0000    0.59900   0.01990   0.45180   Biso      1.000     C          -0.183575           
         C55       1.0000    0.52380   0.97600   0.47830   Biso      1.000     C          0.117335  
         C56       1.0000    0.49060   0.88740   0.45900   Biso      1.000     C          -0.184915           
         C57       1.0000    0.53650   0.84540   0.41850   Biso      1.000     C          0.099567  
         C58       1.0000    0.14000   0.57700   0.80000   Biso      1.000     C          0.594296  
         C59       1.0000    0.08910   0.87020   0.29990   Biso      1.000     C          0.583953  
         C60       1.0000    0.05890   0.51300   0.77650   Biso      1.000     C          0.031335  
         C61       1.0000    0.91090   0.62980   0.79990   Biso      1.000     C          0.583953  
         C62       1.0000    0.39130   0.52160   0.75400   Biso      1.000     C          0.055367  
         C63       1.0000    0.51940   0.63000   0.77590   Biso      1.000     C          0.0905    
         C64       1.0000    0.09010   0.42740   0.75080   Biso      1.000     C          -0.158996           
         C65       1.0000    0.35470   0.52940   0.91130   Biso      1.000     C          0.103672  
         C66       1.0000    0.40100   0.48010   0.95180   Biso      1.000     C          -0.183575           
         C67       1.0000    0.47620   0.52400   0.97830   Biso      1.000     C          0.117335  
         C68       1.0000    0.50940   0.61260   0.95900   Biso      1.000     C          -0.184915           
         C69       1.0000    0.46350   0.65460   0.91850   Biso      1.000     C          0.099567  
         C70       1.0000    0.95530   0.53900   0.77410   Biso      1.000     C          -0.087419           
         C71       1.0000    0.04470   0.96100   0.27410   Biso      1.000     C          -0.08742  
         C72       1.0000    0.94110   0.98700   0.27650   Biso      1.000     C          0.031337  
         C73       1.0000    0.86000   0.92300   0.30000   Biso      1.000     C          0.594296  
         C74       1.0000    0.58910   0.12980   0.20010   Biso      1.000     C          0.583958  
         C75       1.0000    0.10870   0.02160   0.24600   Biso      1.000     C          0.055364  
         C76       1.0000    0.98060   0.13000   0.22410   Biso      1.000     C          0.0905    
         C77       1.0000    0.40990   0.92740   0.24920   Biso      1.000     C          -0.158998           
         C78       1.0000    0.14530   0.02940   0.08870   Biso      1.000     C          0.103681  
         C79       1.0000    0.09900   0.98010   0.04820   Biso      1.000     C          -0.183581           
         C80       1.0000    0.02380   0.02400   0.02170   Biso      1.000     C          0.117326  
         C81       1.0000    0.99060   0.11260   0.04100   Biso      1.000     C          -0.18492  
         C82       1.0000    0.03650   0.15460   0.08150   Biso      1.000     C          0.099582  
         C83       1.0000    0.64000   0.42300   0.70000   Biso      1.000     C          0.594282  
         C84       1.0000    0.55890   0.48700   0.72350   Biso      1.000     C          0.031325  
         C85       1.0000    0.45530   0.46100   0.72590   Biso      1.000     C          -0.087424           
         C86       1.0000    0.41090   0.37020   0.70010   Biso      1.000     C          0.583958  
         C87       1.0000    0.89130   0.47840   0.74600   Biso      1.000     C          0.055364  
         C88       1.0000    0.01940   0.37000   0.72410   Biso      1.000     C          0.0905    
         C89       1.0000    0.59010   0.57260   0.74920   Biso      1.000     C          -0.158998           
         C90       1.0000    0.85470   0.47060   0.58870   Biso      1.000     C          0.103681  
         C91       1.0000    0.90100   0.51990   0.54820   Biso      1.000     C          -0.18358  
         C92       1.0000    0.97620   0.47600   0.52170   Biso      1.000     C          0.117325  
         C93       1.0000    0.00940   0.38740   0.54100   Biso      1.000     C          -0.18492  
         C94       1.0000    0.96350   0.34540   0.58150   Biso      1.000     C          0.099582  
         C95       1.0000    0.09010   0.92740   0.74920   Biso      1.000     C          -0.158998           
         C96       1.0000    0.35470   0.02940   0.58870   Biso      1.000     C          0.103681  
         Cd1       1.0000    0.80519   0.80353   0.82913   Biso      1.000     Cd          0.816744  
         Cd2       1.0000    0.19481   0.69647   0.32913   Biso      1.000     Cd          0.816744  
         Cd3       1.0000    0.30519   0.19647   0.67088   Biso      1.000     Cd          0.816772  
         Cd4       1.0000    0.69481   0.30353   0.17088   Biso      1.000     Cd          0.816772  
         Cd5       1.0000    0.19481   0.19647   0.17088   Biso      1.000     Cd          0.816772  
         Cd6       1.0000    0.80519   0.30353   0.67088   Biso      1.000     Cd          0.816772  
         Cd7       1.0000    0.69481   0.80353   0.32913   Biso      1.000     Cd          0.816744  
         Cd8       1.0000    0.30519   0.69647   0.82913   Biso      1.000     Cd          0.816744  
         H1        1.0000    0.56460   0.64540   0.97360   Biso      1.000     H          0.125417  
         H2        1.0000    0.00820   0.71370   0.40580   Biso      1.000     H          0.099091  
         H3        1.0000    0.32280   0.00330   0.74400   Biso      1.000     H          0.097389  
         H4        1.0000    0.54180   0.18790   0.70780   Biso      1.000     H          0.095482  
         H5        1.0000    0.15850   0.90830   0.74870   Biso      1.000     H          0.138625  
         H6        1.0000    0.49180   0.21370   0.59420   Biso      1.000     H          0.099088  
         H7        1.0000    0.37920   0.91540   0.53960   Biso      1.000     H          0.126713  
         H8        1.0000    0.56460   0.14540   0.52640   Biso      1.000     H          0.125414  
         H9        1.0000    0.93540   0.64540   0.47360   Biso      1.000     H          0.125417  
         H10       1.0000    0.67720   0.49670   0.24400   Biso      1.000     H          0.097389  
         H11       1.0000    0.30160   0.99730   0.60530   Biso      1.000     H          0.112172  
         H12       1.0000    0.12080   0.41540   0.46040   Biso      1.000     H          0.126715  
         H13       1.0000    0.17720   0.50330   0.25600   Biso      1.000     H          0.097389  
         H14       1.0000    0.34150   0.40830   0.25130   Biso      1.000     H          0.138627  
         H15       1.0000    0.95820   0.68790   0.29220   Biso      1.000     H          0.095483  
         H16       1.0000    0.45820   0.31210   0.20780   Biso      1.000     H          0.095482  
         H17       1.0000    0.99180   0.78630   0.90580   Biso      1.000     H          0.099091  
         H18       1.0000    0.06460   0.85460   0.97360   Biso      1.000     H          0.125416  
         H19       1.0000    0.87920   0.08460   0.96040   Biso      1.000     H          0.126715  
         H20       1.0000    0.80160   0.00270   0.89470   Biso      1.000     H          0.112175  
         H21       1.0000    0.65850   0.09170   0.75130   Biso      1.000     H          0.138627  
         H22       1.0000    0.04180   0.81210   0.79220   Biso      1.000     H          0.095483  
         H23       1.0000    0.49180   0.71370   0.90580   Biso      1.000     H          0.09909   
         H24       1.0000    0.19840   0.49730   0.39470   Biso      1.000     H          0.112175  
         H25       1.0000    0.84150   0.59170   0.24870   Biso      1.000     H          0.138625  
         H26       1.0000    0.82280   0.99670   0.75600   Biso      1.000     H          0.097389  
         H27       1.0000    0.62080   0.58460   0.03960   Biso      1.000     H          0.126713  
         H28       1.0000    0.37920   0.41540   0.96040   Biso      1.000     H          0.126716  
         H29       1.0000    0.30160   0.49730   0.89470   Biso      1.000     H          0.112175  
         H30       1.0000    0.15850   0.40830   0.75130   Biso      1.000     H          0.138627  
         H31       1.0000    0.54180   0.68790   0.79220   Biso      1.000     H          0.095483  
         H32       1.0000    0.32280   0.50330   0.75600   Biso      1.000     H          0.097389  
         H33       1.0000    0.50820   0.78630   0.40580   Biso      1.000     H          0.09909   
         H34       1.0000    0.43540   0.85460   0.47360   Biso      1.000     H          0.125417  
         H35       1.0000    0.62080   0.08460   0.46040   Biso      1.000     H          0.126716  
         H36       1.0000    0.69840   0.00270   0.39470   Biso      1.000     H          0.112175  
         H37       1.0000    0.84150   0.09170   0.25130   Biso      1.000     H          0.138627  
         H38       1.0000    0.67720   0.99670   0.25600   Biso      1.000     H          0.097389  
         H39       1.0000    0.99180   0.28630   0.59420   Biso      1.000     H          0.099088  
         H40       1.0000    0.06460   0.35460   0.52640   Biso      1.000     H          0.125414  
         H41       1.0000    0.45820   0.81210   0.29220   Biso      1.000     H          0.095483  
         H42       1.0000    0.80160   0.50270   0.60530   Biso      1.000     H          0.112172  
         H43       1.0000    0.43540   0.35460   0.02640   Biso      1.000     H          0.125414  
         H44       1.0000    0.50820   0.28630   0.09420   Biso      1.000     H          0.099088  
         H45       1.0000    0.17720   0.00330   0.24400   Biso      1.000     H          0.097389  
         H46       1.0000    0.95820   0.18790   0.20780   Biso      1.000     H          0.095482  
         H47       1.0000    0.87920   0.58460   0.53960   Biso      1.000     H          0.126713  
         H48       1.0000    0.19840   0.99730   0.10530   Biso      1.000     H          0.112172  
         H49       1.0000    0.34150   0.90830   0.24870   Biso      1.000     H          0.138625  
         H50       1.0000    0.93540   0.14540   0.02640   Biso      1.000     H          0.125414  
         H51       1.0000    0.00820   0.21370   0.09420   Biso      1.000     H          0.099088  
         H52       1.0000    0.82280   0.49670   0.74400   Biso      1.000     H          0.097389  
         H53       1.0000    0.04180   0.31210   0.70780   Biso      1.000     H          0.095482  
         H54       1.0000    0.65850   0.59170   0.74870   Biso      1.000     H          0.138625  
         H55       1.0000    0.12080   0.91540   0.03960   Biso      1.000     H          0.126713  
         H56       1.0000    0.69840   0.50270   0.10530   Biso      1.000     H          0.112172  
         N1        1.0000    0.38400   0.61890   0.89650   Biso      1.000     N          -0.201534           
         N2        1.0000    0.11600   0.11890   0.10350   Biso      1.000     N          -0.20158  
         N3        1.0000    0.42110   0.60510   0.77882   Biso      1.000     N          -0.23383  
         N4        1.0000    0.61600   0.88110   0.39650   Biso      1.000     N          -0.201534           
         N5        1.0000    0.57890   0.89490   0.27882   Biso      1.000     N          -0.23383  
         N6        1.0000    0.88400   0.38110   0.60350   Biso      1.000     N          -0.20158  
         N7        1.0000    0.92110   0.39490   0.72118   Biso      1.000     N          -0.233832           
         N8        1.0000    0.07890   0.10510   0.22118   Biso      1.000     N          -0.233833           
         N9        1.0000    0.57890   0.39490   0.22118   Biso      1.000     N          -0.233832           
         N10       1.0000    0.38400   0.11890   0.60350   Biso      1.000     N          -0.20158  
         N11       1.0000    0.42110   0.10510   0.72118   Biso      1.000     N          -0.233832           
         N12       1.0000    0.11600   0.61890   0.39650   Biso      1.000     N          -0.201533           
         N13       1.0000    0.07890   0.60510   0.27882   Biso      1.000     N          -0.23383  
         N14       1.0000    0.88400   0.88110   0.89650   Biso      1.000     N          -0.201533           
         N15       1.0000    0.92110   0.89490   0.77882   Biso      1.000     N          -0.23383  
         N16       1.0000    0.61600   0.38110   0.10350   Biso      1.000     N          -0.20158  
         O1        1.0000    0.33380   0.15630   0.22080   Biso      1.000     O          -0.535685           
         O2        1.0000    0.54360   0.16910   0.16479   Biso      1.000     O          -0.575374           
         O3        1.0000    0.67280   0.16220   0.21660   Biso      1.000     O          -0.544031           
         O4        1.0000    0.68440   0.45750   0.66350   Biso      1.000     O          -0.582265           
         O5        1.0000    0.66620   0.34370   0.72080   Biso      1.000     O          -0.535685           
         O6        1.0000    0.45640   0.33090   0.66479   Biso      1.000     O          -0.575374           
         O7        1.0000    0.83380   0.84370   0.27920   Biso      1.000     O          -0.535729           
         O8        1.0000    0.81560   0.95750   0.33650   Biso      1.000     O          -0.582274           
         O9        1.0000    0.31560   0.04250   0.16350   Biso      1.000     O          -0.582265           
         O10       1.0000    0.04360   0.83090   0.33521   Biso      1.000     O          -0.575384           
         O11       1.0000    0.17280   0.83780   0.28340   Biso      1.000     O          -0.543992           
         O12       1.0000    0.18440   0.54250   0.83650   Biso      1.000     O          -0.582274           
         O13       1.0000    0.16620   0.65630   0.77920   Biso      1.000     O          -0.535729           
         O14       1.0000    0.32720   0.33780   0.71660   Biso      1.000     O          -0.544031           
         O15       1.0000    0.17280   0.33780   0.21660   Biso      1.000     O          -0.544031           
         O16       1.0000    0.82720   0.16220   0.71660   Biso      1.000     O          -0.544031           
         O17       1.0000    0.83380   0.34370   0.22080   Biso      1.000     O          -0.535685           
         O18       1.0000    0.81560   0.45750   0.16350   Biso      1.000     O          -0.582265           
         O19       1.0000    0.95640   0.16910   0.66479   Biso      1.000     O          -0.575374           
         O20       1.0000    0.16620   0.15630   0.72080   Biso      1.000     O          -0.535685           
         O21       1.0000    0.18440   0.04250   0.66350   Biso      1.000     O          -0.582265           
         O22       1.0000    0.67280   0.66220   0.28340   Biso      1.000     O          -0.543991           
         O23       1.0000    0.54360   0.66910   0.33521   Biso      1.000     O          -0.575384           
         O24       1.0000    0.33380   0.65630   0.27920   Biso      1.000     O          -0.535729           
         O25       1.0000    0.31560   0.54250   0.33650   Biso      1.000     O          -0.582273           
         O26       1.0000    0.32720   0.83780   0.78340   Biso      1.000     O          -0.543991           
         O27       1.0000    0.45640   0.83090   0.83521   Biso      1.000     O          -0.575384           
         O28       1.0000    0.66620   0.84370   0.77920   Biso      1.000     O          -0.535729           
         O29       1.0000    0.68440   0.95750   0.83650   Biso      1.000     O          -0.582273           
         O30       1.0000    0.95640   0.66910   0.83521   Biso      1.000     O          -0.575384           
         O31       1.0000    0.04360   0.33090   0.16479   Biso      1.000     O          -0.575374           
         O32       1.0000    0.82720   0.66220   0.78340   Biso      1.000     O          -0.543992 