
##########################################################################
#               Crystallographic Information Format file
#               Produced by PyCifRW module
#
#  This is a CIF file.  CIF has been adopted by the International
#  Union of Crystallography as the standard for data archiving and
#  transmission.
#
#  For information on this file format, follow the CIF links at
#  http://www.iucr.org
##########################################################################

data_image0

_cell_length_a                          7.577
_cell_length_b                          15.071
_cell_length_c                          27.32
_cell_angle_alpha                       90
_cell_angle_beta                        90
_cell_angle_gamma                       90
_symmetry_space_group_name_H-M          'P 1'
_symmetry_int_tables_number             1
loop_
  _symmetry_equiv_pos_as_xyz
         'x, y, z' 
loop_
  _atom_site_label
  _atom_site_occupancy
  _atom_site_fract_x
  _atom_site_fract_y
  _atom_site_fract_z
  _atom_site_thermal_displace_type
  _atom_site_B_iso_or_equiv
  _atom_site_type_symbol
  _atom_site_charge
         C1        1.0000    0.53130   0.98960   0.06820   Biso      1.000     C          -0.180997           
         C2        1.0000    0.28760   0.72320   0.83080   Biso      1.000     C          -0.076273           
         C3        1.0000    0.14540   0.72340   0.86170   Biso      1.000     C          0.034057  
         C4        1.0000    0.94990   0.72940   0.79810   Biso      1.000     C          0.101006  
         C5        1.0000    0.08510   0.73070   0.76520   Biso      1.000     C          -0.149982           
         C6        1.0000    0.25910   0.72580   0.78070   Biso      1.000     C          0.023946  
         C7        1.0000    0.40470   0.72580   0.74250   Biso      1.000     C          0.588968  
         C8        1.0000    0.90080   0.62360   0.12020   Biso      1.000     C          -0.056161           
         C9        1.0000    0.76150   0.67720   0.13400   Biso      1.000     C          0.021233  
         C10       1.0000    0.55760   0.56970   0.11790   Biso      1.000     C          0.09967   
         C11       1.0000    0.46770   0.71110   0.85460   Biso      1.000     C          0.593739  
         C12       1.0000    0.68780   0.51260   0.10270   Biso      1.000     C          -0.150158           
         C13       1.0000    0.00390   0.47120   0.09210   Biso      1.000     C          0.573465  
         C14       1.0000    0.51440   0.92720   0.10460   Biso      1.000     C          0.080754  
         C15       1.0000    0.49640   0.96700   0.02000   Biso      1.000     C          0.095516  
         C16       1.0000    0.46020   0.87790   0.01110   Biso      1.000     C          -0.178644           
         C17       1.0000    0.44880   0.81970   0.04930   Biso      1.000     C          0.104355  
         C18       1.0000    0.08070   0.70030   0.49340   Biso      1.000     C          0.107151  
         C19       1.0000    0.02230   0.62350   0.51470   Biso      1.000     C          -0.182031           
         C20       1.0000    0.02840   0.54200   0.48920   Biso      1.000     C          0.098798  
         C21       1.0000    0.09620   0.54740   0.44230   Biso      1.000     C          -0.184831           
         C22       1.0000    0.86250   0.53810   0.10400   Biso      1.000     C          0.018694  
         C23       1.0000    0.15250   0.62750   0.42400   Biso      1.000     C          0.097369  
         C24       1.0000    0.91460   0.83800   0.62430   Biso      1.000     C          0.588596  
         C25       1.0000    0.23850   0.82280   0.63400   Biso      1.000     C          0.021233  
         C26       1.0000    0.71240   0.77680   0.33080   Biso      1.000     C          -0.076273           
         C27       1.0000    0.85460   0.77660   0.36170   Biso      1.000     C          0.034057  
         C28       1.0000    0.05010   0.77060   0.29810   Biso      1.000     C          0.101006  
         C29       1.0000    0.91490   0.76930   0.26520   Biso      1.000     C          -0.149982           
         C30       1.0000    0.74090   0.77420   0.28070   Biso      1.000     C          0.023946  
         C31       1.0000    0.59530   0.77420   0.24250   Biso      1.000     C          0.588968  
         C32       1.0000    0.84750   0.87250   0.92400   Biso      1.000     C          0.097366  
         C33       1.0000    0.90380   0.95260   0.94230   Biso      1.000     C          -0.184829           
         C34       1.0000    0.97160   0.95800   0.98920   Biso      1.000     C          0.0988    
         C35       1.0000    0.09920   0.87640   0.62020   Biso      1.000     C          -0.056161           
         C36       1.0000    0.97770   0.87650   0.01470   Biso      1.000     C          -0.182035           
         C37       1.0000    0.55120   0.68030   0.54930   Biso      1.000     C          0.104354  
         C38       1.0000    0.53980   0.62210   0.51110   Biso      1.000     C          -0.178643           
         C39       1.0000    0.50360   0.53300   0.52000   Biso      1.000     C          0.095516  
         C40       1.0000    0.46870   0.51040   0.56820   Biso      1.000     C          -0.180997           
         C41       1.0000    0.48560   0.57280   0.60460   Biso      1.000     C          0.080754  
         C42       1.0000    0.99610   0.02880   0.59210   Biso      1.000     C          0.573466  
         C43       1.0000    0.13750   0.96190   0.60400   Biso      1.000     C          0.018691  
         C44       1.0000    0.31220   0.98740   0.60270   Biso      1.000     C          -0.150162           
         C45       1.0000    0.44240   0.93030   0.61790   Biso      1.000     C          0.099677  
         C46       1.0000    0.91930   0.79970   0.99340   Biso      1.000     C          0.107155  
         C47       1.0000    0.59530   0.27420   0.25750   Biso      1.000     C          0.588968  
         C48       1.0000    0.74090   0.27420   0.21930   Biso      1.000     C          0.023947  
         C49       1.0000    0.91490   0.26930   0.23480   Biso      1.000     C          -0.149989           
         C50       1.0000    0.14540   0.22340   0.63830   Biso      1.000     C          0.034052  
         C51       1.0000    0.28760   0.22320   0.66920   Biso      1.000     C          -0.076268           
         C52       1.0000    0.46770   0.21110   0.64540   Biso      1.000     C          0.593739  
         C53       1.0000    0.91460   0.33800   0.87570   Biso      1.000     C          0.588596  
         C54       1.0000    0.09920   0.37640   0.87980   Biso      1.000     C          -0.056161           
         C55       1.0000    0.23850   0.32280   0.86600   Biso      1.000     C          0.021233  
         C56       1.0000    0.44240   0.43030   0.88210   Biso      1.000     C          0.09967   
         C57       1.0000    0.31220   0.48740   0.89730   Biso      1.000     C          -0.150158           
         C58       1.0000    0.13750   0.46190   0.89600   Biso      1.000     C          0.018694  
         C59       1.0000    0.94990   0.22940   0.70190   Biso      1.000     C          0.101006  
         C60       1.0000    0.99610   0.52880   0.90790   Biso      1.000     C          0.573465  
         C61       1.0000    0.46870   0.01040   0.93180   Biso      1.000     C          -0.180997           
         C62       1.0000    0.50360   0.03300   0.98000   Biso      1.000     C          0.095516  
         C63       1.0000    0.53980   0.12210   0.98890   Biso      1.000     C          -0.178644           
         C64       1.0000    0.55120   0.18030   0.95070   Biso      1.000     C          0.104354  
         C65       1.0000    0.91930   0.29970   0.50660   Biso      1.000     C          0.107151  
         C66       1.0000    0.97770   0.37650   0.48530   Biso      1.000     C          -0.182031           
         C67       1.0000    0.97160   0.45800   0.51080   Biso      1.000     C          0.098798  
         C68       1.0000    0.90380   0.45260   0.55770   Biso      1.000     C          -0.184831           
         C69       1.0000    0.84750   0.37250   0.57600   Biso      1.000     C          0.097369  
         C70       1.0000    0.48560   0.07280   0.89540   Biso      1.000     C          0.080754  
         C71       1.0000    0.08510   0.23070   0.73480   Biso      1.000     C          -0.149982           
         C72       1.0000    0.25910   0.22580   0.71930   Biso      1.000     C          0.023946  
         C73       1.0000    0.40470   0.22580   0.75750   Biso      1.000     C          0.588968  
         C74       1.0000    0.05010   0.27060   0.20190   Biso      1.000     C          0.101013  
         C75       1.0000    0.85460   0.27660   0.13830   Biso      1.000     C          0.034052  
         C76       1.0000    0.71240   0.27680   0.16920   Biso      1.000     C          -0.076269           
         C77       1.0000    0.53230   0.28890   0.14540   Biso      1.000     C          0.593739  
         C78       1.0000    0.08540   0.16200   0.37570   Biso      1.000     C          0.588596  
         C79       1.0000    0.90080   0.12360   0.37980   Biso      1.000     C          -0.056161           
         C80       1.0000    0.76150   0.17720   0.36600   Biso      1.000     C          0.021233  
         C81       1.0000    0.55760   0.06970   0.38210   Biso      1.000     C          0.09967   
         C82       1.0000    0.68780   0.01260   0.39730   Biso      1.000     C          -0.150158           
         C83       1.0000    0.86250   0.03810   0.39600   Biso      1.000     C          0.018694  
         C84       1.0000    0.00390   0.97120   0.40790   Biso      1.000     C          0.573465  
         C85       1.0000    0.51440   0.42720   0.39540   Biso      1.000     C          0.080754  
         C86       1.0000    0.53130   0.48960   0.43180   Biso      1.000     C          -0.180997           
         C87       1.0000    0.49640   0.46700   0.48000   Biso      1.000     C          0.095516  
         C88       1.0000    0.46020   0.37790   0.48890   Biso      1.000     C          -0.178643           
         C89       1.0000    0.44880   0.31970   0.45070   Biso      1.000     C          0.104354  
         C90       1.0000    0.08070   0.20030   0.00660   Biso      1.000     C          0.107151  
         C91       1.0000    0.02230   0.12350   0.98530   Biso      1.000     C          -0.182031           
         C92       1.0000    0.02840   0.04200   0.01080   Biso      1.000     C          0.098798  
         C93       1.0000    0.09620   0.04740   0.05770   Biso      1.000     C          -0.184831           
         C94       1.0000    0.15250   0.12750   0.07600   Biso      1.000     C          0.097369  
         C95       1.0000    0.53230   0.78890   0.35460   Biso      1.000     C          0.593739  
         C96       1.0000    0.08540   0.66200   0.12430   Biso      1.000     C          0.588596  
         Cd1       1.0000    0.61652   0.74471   0.66160   Biso      1.000     Cd          0.828662  
         Cd2       1.0000    0.76345   0.16995   0.59431   Biso      1.000     Cd          0.83875   
         Cd3       1.0000    0.38348   0.75529   0.16160   Biso      1.000     Cd          0.828662  
         Cd4       1.0000    0.23655   0.33005   0.09431   Biso      1.000     Cd          0.838749  
         Cd5       1.0000    0.38348   0.25529   0.33840   Biso      1.000     Cd          0.828662  
         Cd6       1.0000    0.23655   0.83005   0.40569   Biso      1.000     Cd          0.838749  
         Cd7       1.0000    0.61652   0.24471   0.83840   Biso      1.000     Cd          0.828662  
         Cd8       1.0000    0.76345   0.66995   0.90569   Biso      1.000     Cd          0.838749  
         H1        1.0000    0.89630   0.50340   0.57690   Biso      1.000     H          0.129956  
         H2        1.0000    0.79980   0.87160   0.89270   Biso      1.000     H          0.099966  
         H3        1.0000    0.93970   0.76500   0.23200   Biso      1.000     H          0.126591  
         H4        1.0000    0.16550   0.76700   0.28660   Biso      1.000     H          0.104133  
         H5        1.0000    0.83350   0.77630   0.39520   Biso      1.000     H          0.094079  
         H6        1.0000    0.53620   0.94410   0.13680   Biso      1.000     H          0.114643  
         H7        1.0000    0.44100   0.55050   0.11730   Biso      1.000     H          0.104829  
         H8        1.0000    0.65790   0.45620   0.09160   Biso      1.000     H          0.127428  
         H9        1.0000    0.89630   0.00340   0.92310   Biso      1.000     H          0.129956  
         H10       1.0000    0.56620   0.04710   0.07590   Biso      1.000     H          0.13651   
         H11       1.0000    0.78680   0.73460   0.14440   Biso      1.000     H          0.094482  
         H12       1.0000    0.02210   0.87500   0.04640   Biso      1.000     H          0.127289  
         H13       1.0000    0.43380   0.45290   0.57590   Biso      1.000     H          0.136511  
         H14       1.0000    0.57360   0.73970   0.54230   Biso      1.000     H          0.110529  
         H15       1.0000    0.55610   0.64200   0.47920   Biso      1.000     H          0.137288  
         H16       1.0000    0.44390   0.85800   0.97920   Biso      1.000     H          0.137289  
         H17       1.0000    0.46380   0.55590   0.63680   Biso      1.000     H          0.114643  
         H18       1.0000    0.34210   0.04380   0.59160   Biso      1.000     H          0.127428  
         H19       1.0000    0.55900   0.94950   0.61730   Biso      1.000     H          0.104829  
         H20       1.0000    0.21320   0.76540   0.64440   Biso      1.000     H          0.094482  
         H21       1.0000    0.16650   0.72370   0.89520   Biso      1.000     H          0.094079  
         H22       1.0000    0.83450   0.73300   0.78660   Biso      1.000     H          0.104133  
         H23       1.0000    0.79980   0.37160   0.60730   Biso      1.000     H          0.099965  
         H24       1.0000    0.92380   0.74750   0.01160   Biso      1.000     H          0.10456   
         H25       1.0000    0.42640   0.76030   0.04230   Biso      1.000     H          0.110529  
         H26       1.0000    0.06030   0.73500   0.73200   Biso      1.000     H          0.126591  
         H27       1.0000    0.97790   0.62500   0.54640   Biso      1.000     H          0.127288  
         H28       1.0000    0.02210   0.37500   0.45360   Biso      1.000     H          0.127288  
         H29       1.0000    0.92380   0.24750   0.48840   Biso      1.000     H          0.10456   
         H30       1.0000    0.57360   0.23970   0.95770   Biso      1.000     H          0.110529  
         H31       1.0000    0.55610   0.14200   0.02080   Biso      1.000     H          0.137289  
         H32       1.0000    0.43380   0.95290   0.92410   Biso      1.000     H          0.13651   
         H33       1.0000    0.46380   0.05590   0.86320   Biso      1.000     H          0.114643  
         H34       1.0000    0.34210   0.54380   0.90840   Biso      1.000     H          0.127428  
         H35       1.0000    0.55900   0.44950   0.88270   Biso      1.000     H          0.104829  
         H36       1.0000    0.21320   0.26540   0.85560   Biso      1.000     H          0.094482  
         H37       1.0000    0.16650   0.22370   0.60480   Biso      1.000     H          0.094079  
         H38       1.0000    0.06030   0.23500   0.76800   Biso      1.000     H          0.126591  
         H39       1.0000    0.20020   0.12840   0.10730   Biso      1.000     H          0.099965  
         H40       1.0000    0.10370   0.99660   0.07690   Biso      1.000     H          0.129956  
         H41       1.0000    0.83450   0.23300   0.71340   Biso      1.000     H          0.104133  
         H42       1.0000    0.07620   0.25250   0.98840   Biso      1.000     H          0.10456   
         H43       1.0000    0.10370   0.49660   0.42310   Biso      1.000     H          0.129956  
         H44       1.0000    0.20020   0.62840   0.39270   Biso      1.000     H          0.099966  
         H45       1.0000    0.93970   0.26500   0.26800   Biso      1.000     H          0.126592  
         H46       1.0000    0.16550   0.26700   0.21340   Biso      1.000     H          0.104133  
         H47       1.0000    0.97790   0.12500   0.95360   Biso      1.000     H          0.127288  
         H48       1.0000    0.78680   0.23460   0.35560   Biso      1.000     H          0.094481  
         H49       1.0000    0.83350   0.27630   0.10480   Biso      1.000     H          0.094079  
         H50       1.0000    0.65790   0.95620   0.40840   Biso      1.000     H          0.127428  
         H51       1.0000    0.53620   0.44410   0.36320   Biso      1.000     H          0.114643  
         H52       1.0000    0.56620   0.54710   0.42410   Biso      1.000     H          0.13651   
         H53       1.0000    0.44390   0.35800   0.52080   Biso      1.000     H          0.137288  
         H54       1.0000    0.42640   0.26030   0.45770   Biso      1.000     H          0.110529  
         H55       1.0000    0.44100   0.05050   0.38270   Biso      1.000     H          0.104829  
         H56       1.0000    0.07620   0.75250   0.51160   Biso      1.000     H          0.10456   
         N1        1.0000    0.85680   0.29630   0.55170   Biso      1.000     N          -0.209148           
         N2        1.0000    0.59220   0.15160   0.36670   Biso      1.000     N          -0.219031           
         N3        1.0000    0.53230   0.15710   0.90440   Biso      1.000     N          -0.221554           
         N4        1.0000    0.40780   0.34840   0.86670   Biso      1.000     N          -0.219031           
         N5        1.0000    0.97790   0.22310   0.65360   Biso      1.000     N          -0.248424           
         N6        1.0000    0.14320   0.20370   0.05170   Biso      1.000     N          -0.209147           
         N7        1.0000    0.46770   0.34290   0.40440   Biso      1.000     N          -0.221554           
         N8        1.0000    0.02210   0.27690   0.15360   Biso      1.000     N          -0.248425           
         N9        1.0000    0.46770   0.84290   0.09560   Biso      1.000     N          -0.221554           
         N10       1.0000    0.59220   0.65160   0.13330   Biso      1.000     N          -0.219031           
         N11       1.0000    0.02210   0.77690   0.34640   Biso      1.000     N          -0.248425           
         N12       1.0000    0.85680   0.79630   0.94830   Biso      1.000     N          -0.209148           
         N13       1.0000    0.53230   0.65710   0.59560   Biso      1.000     N          -0.221554           
         N14       1.0000    0.40780   0.84840   0.63330   Biso      1.000     N          -0.219032           
         N15       1.0000    0.97790   0.72310   0.84640   Biso      1.000     N          -0.248425           
         N16       1.0000    0.14320   0.70370   0.44830   Biso      1.000     N          -0.209148           
         O1        1.0000    0.61340   0.32370   0.29320   Biso      1.000     O          -0.569803           
         O2        1.0000    0.43090   0.34310   0.16250   Biso      1.000     O          -0.519616           
         O3        1.0000    0.50130   0.24690   0.10710   Biso      1.000     O          -0.604592           
         O4        1.0000    0.13170   0.18340   0.33280   Biso      1.000     O          -0.536099           
         O5        1.0000    0.17390   0.17530   0.41280   Biso      1.000     O          -0.578505           
         O6        1.0000    0.14420   0.97390   0.38360   Biso      1.000     O          -0.527362           
         O7        1.0000    0.38660   0.17630   0.79320   Biso      1.000     O          -0.569803           
         O8        1.0000    0.52700   0.28020   0.75350   Biso      1.000     O          -0.549818           
         O9        1.0000    0.47300   0.21980   0.25350   Biso      1.000     O          -0.549818           
         O10       1.0000    0.56910   0.15690   0.66250   Biso      1.000     O          -0.519616           
         O11       1.0000    0.49870   0.25310   0.60710   Biso      1.000     O          -0.604592           
         O12       1.0000    0.86830   0.31660   0.83280   Biso      1.000     O          -0.536099           
         O13       1.0000    0.82610   0.32470   0.91280   Biso      1.000     O          -0.578505           
         O14       1.0000    0.97300   0.91230   0.43883   Biso      1.000     O          -0.56398  
         O15       1.0000    0.97300   0.41230   0.06117   Biso      1.000     O          -0.56398  
         O16       1.0000    0.50130   0.74690   0.39290   Biso      1.000     O          -0.604592           
         O17       1.0000    0.17390   0.67530   0.08720   Biso      1.000     O          -0.578505           
         O18       1.0000    0.13170   0.68340   0.16720   Biso      1.000     O          -0.536099           
         O19       1.0000    0.43090   0.84310   0.33750   Biso      1.000     O          -0.519616           
         O20       1.0000    0.61340   0.82370   0.20680   Biso      1.000     O          -0.569803           
         O21       1.0000    0.47300   0.71980   0.24650   Biso      1.000     O          -0.549818           
         O22       1.0000    0.02700   0.08770   0.56117   Biso      1.000     O          -0.56398  
         O23       1.0000    0.85580   0.02610   0.61640   Biso      1.000     O          -0.527362           
         O24       1.0000    0.82610   0.82470   0.58720   Biso      1.000     O          -0.578505           
         O25       1.0000    0.86830   0.81660   0.66720   Biso      1.000     O          -0.536099           
         O26       1.0000    0.49870   0.75310   0.89290   Biso      1.000     O          -0.604592           
         O27       1.0000    0.56910   0.65690   0.83750   Biso      1.000     O          -0.519616           
         O28       1.0000    0.38660   0.67630   0.70680   Biso      1.000     O          -0.569803           
         O29       1.0000    0.52700   0.78020   0.74650   Biso      1.000     O          -0.549818           
         O30       1.0000    0.85580   0.52610   0.88360   Biso      1.000     O          -0.527362           
         O31       1.0000    0.14420   0.47390   0.11640   Biso      1.000     O          -0.527362           
         O32       1.0000    0.02700   0.58770   0.93883   Biso      1.000     O          -0.56398 