
##########################################################################
#               Crystallographic Information Format file
#               Produced by PyCifRW module
#
#  This is a CIF file.  CIF has been adopted by the International
#  Union of Crystallography as the standard for data archiving and
#  transmission.
#
#  For information on this file format, follow the CIF links at
#  http://www.iucr.org
##########################################################################

data_image0

_cell_length_a                          10.692
_cell_length_b                          17.219
_cell_length_c                          17.855
_cell_angle_alpha                       104.852
_cell_angle_beta                        90
_cell_angle_gamma                       90
_symmetry_space_group_name_H-M          'P 1'
_symmetry_int_tables_number             1
loop_
  _symmetry_equiv_pos_as_xyz
         'x, y, z' 
loop_
  _atom_site_label
  _atom_site_occupancy
  _atom_site_fract_x
  _atom_site_fract_y
  _atom_site_fract_z
  _atom_site_thermal_displace_type
  _atom_site_B_iso_or_equiv
  _atom_site_type_symbol
  _atom_site_charge
         C1        1.0000    0.30210   0.12250   0.17810   Biso      1.000     C          -0.08728  
         C2        1.0000    0.36360   0.32690   0.80800   Biso      1.000     C          -0.077311           
         C3        1.0000    0.39180   0.38200   0.88620   Biso      1.000     C          0.606591  
         C4        1.0000    0.86420   0.79030   0.62490   Biso      1.000     C          0.630536  
         C5        1.0000    0.80240   0.80990   0.69980   Biso      1.000     C          -0.12258  
         C6        1.0000    0.75260   0.75600   0.73900   Biso      1.000     C          -0.101105           
         C7        1.0000    0.69060   0.79690   0.80830   Biso      1.000     C          -0.111121           
         C8        1.0000    0.40410   0.25040   0.77880   Biso      1.000     C          -0.1114   
         C9        1.0000    0.69790   0.87750   0.82190   Biso      1.000     C          -0.087262           
         C10       1.0000    0.16680   0.99810   0.60920   Biso      1.000     C          0.606842  
         C11       1.0000    0.18300   0.98500   0.68390   Biso      1.000     C          -0.079979           
         C12       1.0000    0.10380   0.94730   0.72210   Biso      1.000     C          -0.106026           
         C13       1.0000    0.14610   0.94840   0.79510   Biso      1.000     C          -0.10955999999999999          
         C14       1.0000    0.26150   0.98530   0.81260   Biso      1.000     C          -0.086462           
         C15       1.0000    0.33680   0.99590   0.88480   Biso      1.000     C          0.604558  
         C16       1.0000    0.65570   0.93960   0.88750   Biso      1.000     C          0.600747  
         C17       1.0000    0.70870   0.24040   0.89660   Biso      1.000     C          0.627049  
         C18       1.0000    0.35550   0.22180   0.70300   Biso      1.000     C          -0.11233900000000001          
         C19       1.0000    0.20870   0.25960   0.60340   Biso      1.000     C          0.627049  
         C20       1.0000    0.13640   0.82690   0.30800   Biso      1.000     C          -0.07731299999999999          
         C21       1.0000    0.10820   0.88200   0.38620   Biso      1.000     C          0.606591  
         C22       1.0000    0.36420   0.70970   0.87510   Biso      1.000     C          0.630537  
         C23       1.0000    0.30240   0.69010   0.80020   Biso      1.000     C          -0.122582           
         C24       1.0000    0.25260   0.74400   0.76100   Biso      1.000     C          -0.101107           
         C25       1.0000    0.19060   0.70310   0.69170   Biso      1.000     C          -0.11111300000000002          
         C26       1.0000    0.28030   0.27230   0.67630   Biso      1.000     C          -0.08392999999999999          
         C27       1.0000    0.19790   0.62250   0.67810   Biso      1.000     C          -0.087272           
         C28       1.0000    0.66680   0.50190   0.89080   Biso      1.000     C          0.606841  
         C29       1.0000    0.68300   0.51500   0.81610   Biso      1.000     C          -0.07998  
         C30       1.0000    0.60380   0.55270   0.77790   Biso      1.000     C          -0.106025           
         C31       1.0000    0.64610   0.55160   0.70490   Biso      1.000     C          -0.10956099999999999          
         C32       1.0000    0.76150   0.51470   0.68740   Biso      1.000     C          -0.086464           
         C33       1.0000    0.83680   0.50410   0.61520   Biso      1.000     C          0.604563  
         C34       1.0000    0.15570   0.56040   0.61250   Biso      1.000     C          0.600737  
         C35       1.0000    0.78030   0.22770   0.82370   Biso      1.000     C          -0.083942           
         C36       1.0000    0.85550   0.27820   0.79700   Biso      1.000     C          -0.112328           
         C37       1.0000    0.90410   0.24960   0.72120   Biso      1.000     C          -0.11141300000000001          
         C38       1.0000    0.71970   0.72770   0.32370   Biso      1.000     C          -0.08394  
         C39       1.0000    0.79130   0.74040   0.39660   Biso      1.000     C          0.627049  
         C40       1.0000    0.16320   0.49590   0.38480   Biso      1.000     C          0.60456   
         C41       1.0000    0.23850   0.48530   0.31260   Biso      1.000     C          -0.086463           
         C42       1.0000    0.35390   0.44840   0.29510   Biso      1.000     C          -0.10956400000000001          
         C43       1.0000    0.39620   0.44730   0.22210   Biso      1.000     C          -0.106027           
         C44       1.0000    0.64450   0.77820   0.29700   Biso      1.000     C          -0.112326           
         C45       1.0000    0.31700   0.48500   0.18390   Biso      1.000     C          -0.079974           
         C46       1.0000    0.84430   0.43960   0.38750   Biso      1.000     C          0.600737  
         C47       1.0000    0.80210   0.37750   0.32190   Biso      1.000     C          -0.087285           
         C48       1.0000    0.80940   0.29690   0.30830   Biso      1.000     C          -0.111101           
         C49       1.0000    0.74740   0.25600   0.23900   Biso      1.000     C          -0.101108           
         C50       1.0000    0.69760   0.30990   0.19980   Biso      1.000     C          -0.12258  
         C51       1.0000    0.63580   0.29030   0.12490   Biso      1.000     C          0.630541  
         C52       1.0000    0.33320   0.49810   0.10920   Biso      1.000     C          0.606842  
         C53       1.0000    0.59590   0.74960   0.22120   Biso      1.000     C          -0.11141300000000001          
         C54       1.0000    0.63640   0.67310   0.19200   Biso      1.000     C          -0.077299           
         C55       1.0000    0.60820   0.61800   0.11380   Biso      1.000     C          0.606589  
         C56       1.0000    0.86360   0.17310   0.69200   Biso      1.000     C          -0.077301           
         C57       1.0000    0.89180   0.11800   0.61380   Biso      1.000     C          0.606589  
         C58       1.0000    0.21970   0.77230   0.17630   Biso      1.000     C          -0.083942           
         C59       1.0000    0.29130   0.75960   0.10340   Biso      1.000     C          0.627049  
         C60       1.0000    0.66320   0.00410   0.11520   Biso      1.000     C          0.604557  
         C61       1.0000    0.73850   0.01470   0.18740   Biso      1.000     C          -0.086462           
         C62       1.0000    0.85390   0.05160   0.20490   Biso      1.000     C          -0.10956199999999999          
         C63       1.0000    0.89620   0.05270   0.27790   Biso      1.000     C          -0.106029           
         C64       1.0000    0.81700   0.01500   0.31610   Biso      1.000     C          -0.079972           
         C65       1.0000    0.83320   0.00190   0.39080   Biso      1.000     C          0.606842  
         C66       1.0000    0.34430   0.06040   0.11250   Biso      1.000     C          0.600743  
         C67       1.0000    0.30940   0.20310   0.19170   Biso      1.000     C          -0.11110199999999999          
         C68       1.0000    0.24740   0.24400   0.26100   Biso      1.000     C          -0.101107           
         C69       1.0000    0.19760   0.19010   0.30020   Biso      1.000     C          -0.12257799999999999          
         C70       1.0000    0.13580   0.20970   0.37510   Biso      1.000     C          0.630538  
         C71       1.0000    0.09590   0.75040   0.27880   Biso      1.000     C          -0.111401           
         C72       1.0000    0.14450   0.72180   0.20300   Biso      1.000     C          -0.11233  
         Eu1       1.0000    0.86987   0.92429   0.51574   Biso      1.000     Eu          1.36937   
         Eu2       1.0000    0.36987   0.57571   0.98426   Biso      1.000     Eu          1.369376  
         Eu3       1.0000    0.57293   0.11061   0.98566   Biso      1.000     Eu          1.381182  
         Eu4       1.0000    0.07293   0.38939   0.51434   Biso      1.000     Eu          1.381176  
         Eu5       1.0000    0.13013   0.07571   0.48426   Biso      1.000     Eu          1.369372  
         Eu6       1.0000    0.42707   0.88939   0.01434   Biso      1.000     Eu          1.381173  
         Eu7       1.0000    0.63013   0.42429   0.01574   Biso      1.000     Eu          1.369377  
         Eu8       1.0000    0.92707   0.61061   0.48566   Biso      1.000     Eu          1.3811799999999999  
         H1        1.0000    0.74060   0.20050   0.22180   Biso      1.000     H          0.130509  
         H2        1.0000    0.95520   0.27830   0.69580   Biso      1.000     H          0.143528  
         H3        1.0000    0.87430   0.32940   0.82720   Biso      1.000     H          0.128173  
         H4        1.0000    0.10150   0.92640   0.82940   Biso      1.000     H          0.13609300000000002           
         H5        1.0000    0.02910   0.92340   0.70140   Biso      1.000     H          0.126828  
         H6        1.0000    0.64940   0.77080   0.84080   Biso      1.000     H          0.14123   
         H7        1.0000    0.75940   0.70050   0.72180   Biso      1.000     H          0.13050799999999999           
         H8        1.0000    0.45520   0.22170   0.80420   Biso      1.000     H          0.143527  
         H9        1.0000    0.37430   0.17060   0.67280   Biso      1.000     H          0.128173  
         H10       1.0000    0.85060   0.27080   0.34080   Biso      1.000     H          0.141227  
         H11       1.0000    0.52910   0.57660   0.79860   Biso      1.000     H          0.126829  
         H12       1.0000    0.60150   0.57360   0.67060   Biso      1.000     H          0.136098  
         H13       1.0000    0.47090   0.42340   0.20140   Biso      1.000     H          0.126829  
         H14       1.0000    0.62570   0.82940   0.32720   Biso      1.000     H          0.128173  
         H15       1.0000    0.54480   0.77830   0.19580   Biso      1.000     H          0.143528  
         H16       1.0000    0.24060   0.29950   0.27820   Biso      1.000     H          0.13050799999999999           
         H17       1.0000    0.35060   0.22920   0.15920   Biso      1.000     H          0.141227  
         H18       1.0000    0.39850   0.42640   0.32940   Biso      1.000     H          0.136099  
         H19       1.0000    0.89850   0.07360   0.17060   Biso      1.000     H          0.136096  
         H20       1.0000    0.12570   0.67060   0.17280   Biso      1.000     H          0.128174  
         H21       1.0000    0.04480   0.72170   0.30420   Biso      1.000     H          0.143527  
         H22       1.0000    0.25940   0.79950   0.77820   Biso      1.000     H          0.130509  
         H23       1.0000    0.14940   0.72920   0.65920   Biso      1.000     H          0.141227  
         H24       1.0000    0.97090   0.07660   0.29860   Biso      1.000     H          0.126829  
         O1        1.0000    0.74920   0.46560   0.91740   Biso      1.000     O          -0.54022  
         O2        1.0000    0.93350   0.01990   0.42700   Biso      1.000     O          -0.571511           
         O3        1.0000    0.57650   0.95400   0.10710   Biso      1.000     O          -0.5513060000000001           
         O4        1.0000    0.68990   0.04670   0.06920   Biso      1.000     O          -0.506392           
         O5        1.0000    0.27330   0.69500   0.05230   Biso      1.000     O          -0.520647           
         O6        1.0000    0.16200   0.94780   0.40430   Biso      1.000     O          -0.568358           
         O7        1.0000    0.02370   0.85550   0.42460   Biso      1.000     O          -0.515284           
         O8        1.0000    0.40420   0.65400   0.89900   Biso      1.000     O          -0.571087           
         O9        1.0000    0.37960   0.78310   0.91000   Biso      1.000     O          -0.556194           
         O10       1.0000    0.07860   0.58130   0.56550   Biso      1.000     O          -0.551635           
         O11       1.0000    0.18620   0.48940   0.60570   Biso      1.000     O          -0.531554           
         O12       1.0000    0.35820   0.81700   0.09580   Biso      1.000     O          -0.57775  
         O13       1.0000    0.75080   0.96560   0.41740   Biso      1.000     O          -0.540221           
         O14       1.0000    0.52370   0.64450   0.07540   Biso      1.000     O          -0.515285           
         O15       1.0000    0.42140   0.08130   0.06550   Biso      1.000     O          -0.551649           
         O16       1.0000    0.12040   0.28310   0.41000   Biso      1.000     O          -0.5562060000000001           
         O17       1.0000    0.09580   0.15400   0.39900   Biso      1.000     O          -0.571092           
         O18       1.0000    0.66200   0.55220   0.09570   Biso      1.000     O          -0.5683590000000001           
         O19       1.0000    0.85820   0.68300   0.40420   Biso      1.000     O          -0.577756           
         O20       1.0000    0.77330   0.80500   0.44770   Biso      1.000     O          -0.520647           
         O21       1.0000    0.18990   0.45330   0.43080   Biso      1.000     O          -0.506402           
         O22       1.0000    0.07650   0.54600   0.39290   Biso      1.000     O          -0.551315           
         O23       1.0000    0.43350   0.48010   0.07300   Biso      1.000     O          -0.5715140000000001           
         O24       1.0000    0.25080   0.53440   0.08260   Biso      1.000     O          -0.540222           
         O25       1.0000    0.81380   0.51060   0.39430   Biso      1.000     O          -0.531554           
         O26       1.0000    0.56650   0.51990   0.92700   Biso      1.000     O          -0.571511           
         O27       1.0000    0.92140   0.41870   0.43450   Biso      1.000     O          -0.5516310000000001           
         O28       1.0000    0.31380   0.98940   0.10570   Biso      1.000     O          -0.531572           
         O29       1.0000    0.92350   0.45400   0.60710   Biso      1.000     O          -0.551316           
         O30       1.0000    0.64180   0.18300   0.90420   Biso      1.000     O          -0.577751           
         O31       1.0000    0.22670   0.19500   0.55230   Biso      1.000     O          -0.520647           
         O32       1.0000    0.62040   0.21690   0.09000   Biso      1.000     O          -0.556203           
         O33       1.0000    0.81010   0.54670   0.56920   Biso      1.000     O          -0.5064069999999999           
         O34       1.0000    0.97630   0.14450   0.57540   Biso      1.000     O          -0.515286           
         O35       1.0000    0.72670   0.30500   0.94770   Biso      1.000     O          -0.520647           
         O36       1.0000    0.31010   0.95330   0.93080   Biso      1.000     O          -0.506391           
         O37       1.0000    0.42350   0.04600   0.89290   Biso      1.000     O          -0.551307           
         O38       1.0000    0.06650   0.98010   0.57300   Biso      1.000     O          -0.5715100000000001           
         O39       1.0000    0.83800   0.05220   0.59570   Biso      1.000     O          -0.568358           
         O40       1.0000    0.68620   0.01060   0.89430   Biso      1.000     O          -0.531582           
         O41       1.0000    0.14180   0.31700   0.59580   Biso      1.000     O          -0.577756           
         O42       1.0000    0.24920   0.03440   0.58260   Biso      1.000     O          -0.54022  
         O43       1.0000    0.47630   0.35550   0.92460   Biso      1.000     O          -0.515284           
         O44       1.0000    0.59580   0.34600   0.10100   Biso      1.000     O          -0.5710930000000001           
         O45       1.0000    0.90420   0.84600   0.60100   Biso      1.000     O          -0.571088           
         O46       1.0000    0.87960   0.71690   0.59000   Biso      1.000     O          -0.5562010000000001           
         O47       1.0000    0.57860   0.91870   0.93450   Biso      1.000     O          -0.551676           
         O48       1.0000    0.33800   0.44780   0.90430   Biso      1.000     O          -0.568358           
         S1        1.0000    0.72260   0.40616   0.25091   Biso      1.000     S          0.167357  
         S2        1.0000    0.18720   0.52021   0.23956   Biso      1.000     S          0.189797  
         S3        1.0000    0.73790   0.64139   0.25143   Biso      1.000     S          0.160683  
         S4        1.0000    0.22260   0.09384   0.24909   Biso      1.000     S          0.167357  
         S5        1.0000    0.23790   0.85861   0.24857   Biso      1.000     S          0.160687  
         S6        1.0000    0.27740   0.59384   0.74909   Biso      1.000     S          0.167355  
         S7        1.0000    0.81280   0.47979   0.76044   Biso      1.000     S          0.189797  
         S8        1.0000    0.26210   0.35861   0.74857   Biso      1.000     S          0.160683  
         S9        1.0000    0.77740   0.90616   0.75091   Biso      1.000     S          0.167356  
         S10       1.0000    0.31280   0.02021   0.73956   Biso      1.000     S          0.18979300000000002           
         S11       1.0000    0.76210   0.14139   0.75143   Biso      1.000     S          0.160686  
         S12       1.0000    0.68720   0.97979   0.26044   Biso      1.000     S          0.18979300000000002 