
##########################################################################
#               Crystallographic Information Format file
#               Produced by PyCifRW module
#
#  This is a CIF file.  CIF has been adopted by the International
#  Union of Crystallography as the standard for data archiving and
#  transmission.
#
#  For information on this file format, follow the CIF links at
#  http://www.iucr.org
##########################################################################

data_image0

_cell_length_a                          11.492
_cell_length_b                          17.326
_cell_length_c                          17.326
_cell_angle_alpha                       106.05
_cell_angle_beta                        90
_cell_angle_gamma                       90
_symmetry_space_group_name_H-M          'P 1'
_symmetry_int_tables_number             1
loop_
  _symmetry_equiv_pos_as_xyz
         'x, y, z' 
loop_
  _atom_site_label
  _atom_site_occupancy
  _atom_site_fract_x
  _atom_site_fract_y
  _atom_site_fract_z
  _atom_site_thermal_displace_type
  _atom_site_B_iso_or_equiv
  _atom_site_type_symbol
  _atom_site_charge
         C1        1.0000    0.31630   0.83570   0.82920   Biso      1.000     C          -0.080058           
         C2        1.0000    0.80230   0.79960   0.30430   Biso      1.000     C          -0.125737           
         C3        1.0000    0.79870   0.87970   0.31840   Biso      1.000     C          -0.085876           
         C4        1.0000    0.85840   0.93980   0.38700   Biso      1.000     C          0.618461  
         C5        1.0000    0.84130   0.01150   0.60930   Biso      1.000     C          0.608414  
         C6        1.0000    0.76040   0.01850   0.67950   Biso      1.000     C          -0.084206           
         C7        1.0000    0.66070   0.06150   0.69540   Biso      1.000     C          -0.120081           
         C8        1.0000    0.60720   0.05570   0.76820   Biso      1.000     C          -0.102978           
         C9        1.0000    0.66860   0.00970   0.80630   Biso      1.000     C          -0.079397           
         C10       1.0000    0.64330   0.98790   0.88220   Biso      1.000     C          0.606966  
         C11       1.0000    0.33790   0.27150   0.12030   Biso      1.000     C          0.639986  
         C12       1.0000    0.73860   0.75840   0.23360   Biso      1.000     C          -0.100248           
         C13       1.0000    0.27970   0.28140   0.19790   Biso      1.000     C          -0.102738           
         C14       1.0000    0.18370   0.33570   0.32920   Biso      1.000     C          -0.080058           
         C15       1.0000    0.13850   0.39010   0.40470   Biso      1.000     C          0.60525   
         C16       1.0000    0.87180   0.28890   0.61930   Biso      1.000     C          0.612305  
         C17       1.0000    0.80660   0.31070   0.69500   Biso      1.000     C          -0.121905           
         C18       1.0000    0.76140   0.25840   0.73360   Biso      1.000     C          -0.100241           
         C19       1.0000    0.69770   0.29960   0.80430   Biso      1.000     C          -0.125736           
         C20       1.0000    0.70130   0.37970   0.81840   Biso      1.000     C          -0.085877           
         C21       1.0000    0.64160   0.43980   0.88700   Biso      1.000     C          0.618459  
         C22       1.0000    0.65870   0.51150   0.10930   Biso      1.000     C          0.608414  
         C23       1.0000    0.73960   0.51850   0.17950   Biso      1.000     C          -0.084207           
         C24       1.0000    0.21890   0.22700   0.22340   Biso      1.000     C          -0.094693           
         C25       1.0000    0.83930   0.56150   0.19540   Biso      1.000     C          -0.120081           
         C26       1.0000    0.69340   0.81070   0.19500   Biso      1.000     C          -0.121895           
         C27       1.0000    0.36150   0.89010   0.90470   Biso      1.000     C          0.605249  
         C28       1.0000    0.66210   0.72850   0.87970   Biso      1.000     C          0.639991  
         C29       1.0000    0.72030   0.71860   0.80210   Biso      1.000     C          -0.10274  
         C30       1.0000    0.78110   0.77300   0.77660   Biso      1.000     C          -0.094689           
         C31       1.0000    0.83520   0.74240   0.70050   Biso      1.000     C          -0.120948           
         C32       1.0000    0.81630   0.66430   0.67080   Biso      1.000     C          -0.080022           
         C33       1.0000    0.86150   0.60990   0.59530   Biso      1.000     C          0.605247  
         C34       1.0000    0.12820   0.71110   0.38070   Biso      1.000     C          0.612305  
         C35       1.0000    0.19340   0.68930   0.30500   Biso      1.000     C          -0.121903           
         C36       1.0000    0.23860   0.74160   0.26640   Biso      1.000     C          -0.10024  
         C37       1.0000    0.30230   0.70040   0.19570   Biso      1.000     C          -0.125738           
         C38       1.0000    0.62820   0.78890   0.11930   Biso      1.000     C          0.612303  
         C39       1.0000    0.29870   0.62030   0.18160   Biso      1.000     C          -0.085876           
         C40       1.0000    0.34130   0.48850   0.89070   Biso      1.000     C          0.608414  
         C41       1.0000    0.26040   0.48150   0.82050   Biso      1.000     C          -0.084208           
         C42       1.0000    0.16070   0.43850   0.80460   Biso      1.000     C          -0.120081           
         C43       1.0000    0.10720   0.44430   0.73180   Biso      1.000     C          -0.102979           
         C44       1.0000    0.16860   0.49030   0.69370   Biso      1.000     C          -0.079398           
         C45       1.0000    0.14330   0.51210   0.61780   Biso      1.000     C          0.606966  
         C46       1.0000    0.16210   0.77150   0.62030   Biso      1.000     C          0.639985  
         C47       1.0000    0.22030   0.78140   0.69790   Biso      1.000     C          -0.102739           
         C48       1.0000    0.28110   0.72700   0.72340   Biso      1.000     C          -0.094695           
         C49       1.0000    0.33520   0.75760   0.79950   Biso      1.000     C          -0.120913           
         C50       1.0000    0.35840   0.56020   0.11300   Biso      1.000     C          0.618458  
         C51       1.0000    0.89280   0.55570   0.26820   Biso      1.000     C          -0.102978           
         C52       1.0000    0.16480   0.25760   0.29950   Biso      1.000     C          -0.120913           
         C53       1.0000    0.85670   0.48790   0.38220   Biso      1.000     C          0.606966  
         C54       1.0000    0.83140   0.50970   0.30630   Biso      1.000     C          -0.079398           
         C55       1.0000    0.35670   0.01210   0.11780   Biso      1.000     C          0.606968  
         C56       1.0000    0.33140   0.99030   0.19370   Biso      1.000     C          -0.079407           
         C57       1.0000    0.39280   0.94430   0.23180   Biso      1.000     C          -0.102968           
         C58       1.0000    0.33930   0.93850   0.30460   Biso      1.000     C          -0.120103           
         C59       1.0000    0.15870   0.98850   0.39070   Biso      1.000     C          0.608413  
         C60       1.0000    0.14160   0.06020   0.61300   Biso      1.000     C          0.618461  
         C61       1.0000    0.20130   0.12030   0.68160   Biso      1.000     C          -0.085911           
         C62       1.0000    0.19770   0.20040   0.69570   Biso      1.000     C          -0.125703           
         C63       1.0000    0.23960   0.98150   0.32050   Biso      1.000     C          -0.084185           
         C64       1.0000    0.30660   0.18930   0.80500   Biso      1.000     C          -0.121903           
         C65       1.0000    0.37180   0.21110   0.88070   Biso      1.000     C          0.612305  
         C66       1.0000    0.63850   0.10990   0.09530   Biso      1.000     C          0.605251  
         C67       1.0000    0.68370   0.16430   0.17080   Biso      1.000     C          -0.080059           
         C68       1.0000    0.66480   0.24240   0.20050   Biso      1.000     C          -0.120908           
         C69       1.0000    0.71890   0.27300   0.27660   Biso      1.000     C          -0.094723           
         C70       1.0000    0.77970   0.21860   0.30210   Biso      1.000     C          -0.102712           
         C71       1.0000    0.26140   0.24160   0.76640   Biso      1.000     C          -0.100245           
         C72       1.0000    0.83790   0.22850   0.37970   Biso      1.000     C          0.639989  
         H1        1.0000    0.12150   0.22670   0.32530   Biso      1.000     H          0.138295  
         H2        1.0000    0.77080   0.20300   0.71610   Biso      1.000     H          0.131399  
         H3        1.0000    0.65830   0.27360   0.83670   Biso      1.000     H          0.141116  
         H4        1.0000    0.86940   0.59140   0.16290   Biso      1.000     H          0.144054  
         H5        1.0000    0.15830   0.22640   0.66330   Biso      1.000     H          0.141114  
         H6        1.0000    0.62150   0.27330   0.17470   Biso      1.000     H          0.138295  
         H7        1.0000    0.27080   0.29700   0.78390   Biso      1.000     H          0.131399  
         H8        1.0000    0.36940   0.90860   0.33710   Biso      1.000     H          0.144056  
         H9        1.0000    0.21280   0.17350   0.19370   Biso      1.000     H          0.123804  
         H10       1.0000    0.46260   0.91910   0.21240   Biso      1.000     H          0.124309  
         H11       1.0000    0.71280   0.32650   0.30630   Biso      1.000     H          0.123807  
         H12       1.0000    0.53740   0.08090   0.78760   Biso      1.000     H          0.124309  
         H13       1.0000    0.96260   0.58090   0.28760   Biso      1.000     H          0.124309  
         H14       1.0000    0.84170   0.77360   0.33670   Biso      1.000     H          0.141117  
         H15       1.0000    0.63060   0.09140   0.66290   Biso      1.000     H          0.144054  
         H16       1.0000    0.78720   0.82650   0.80630   Biso      1.000     H          0.123804  
         H17       1.0000    0.87850   0.77330   0.67470   Biso      1.000     H          0.138297  
         H18       1.0000    0.34170   0.72640   0.16330   Biso      1.000     H          0.141116  
         H19       1.0000    0.13060   0.40860   0.83710   Biso      1.000     H          0.144055  
         H20       1.0000    0.22920   0.79700   0.28390   Biso      1.000     H          0.131399  
         H21       1.0000    0.28720   0.67350   0.69370   Biso      1.000     H          0.123805  
         H22       1.0000    0.37850   0.72670   0.82530   Biso      1.000     H          0.138296  
         H23       1.0000    0.72920   0.70300   0.21610   Biso      1.000     H          0.131399  
         H24       1.0000    0.03740   0.41910   0.71240   Biso      1.000     H          0.124309  
         O1        1.0000    0.37210   0.33230   0.10340   Biso      1.000     O          -0.534414           
         O2        1.0000    0.91970   0.95910   0.60430   Biso      1.000     O          -0.561701           
         O3        1.0000    0.82770   0.05640   0.56490   Biso      1.000     O          -0.515008           
         O4        1.0000    0.54610   0.00830   0.91660   Biso      1.000     O          -0.570891           
         O5        1.0000    0.71400   0.94800   0.90710   Biso      1.000     O          -0.537405           
         O6        1.0000    0.34520   0.20390   0.07310   Biso      1.000     O          -0.502189           
         O7        1.0000    0.57290   0.41490   0.92950   Biso      1.000     O          -0.575171           
         O8        1.0000    0.06070   0.36360   0.44340   Biso      1.000     O          -0.49167  
         O9        1.0000    0.87580   0.21740   0.58050   Biso      1.000     O          -0.511971           
         O10       1.0000    0.92180   0.34510   0.59720   Biso      1.000     O          -0.558465           
         O11       1.0000    0.83450   0.01180   0.39410   Biso      1.000     O          -0.527937           
         O12       1.0000    0.66550   0.51180   0.89410   Biso      1.000     O          -0.527936           
         O13       1.0000    0.67230   0.55640   0.06490   Biso      1.000     O          -0.515008           
         O14       1.0000    0.17480   0.46130   0.42350   Biso      1.000     O          -0.554356           
         O15       1.0000    0.92710   0.91490   0.42950   Biso      1.000     O          -0.575173           
         O16       1.0000    0.12790   0.83230   0.60340   Biso      1.000     O          -0.534409           
         O17       1.0000    0.62420   0.71740   0.08050   Biso      1.000     O          -0.511971           
         O18       1.0000    0.41970   0.54090   0.89570   Biso      1.000     O          -0.561702           
         O19       1.0000    0.58030   0.45910   0.10430   Biso      1.000     O          -0.561698           
         O20       1.0000    0.32770   0.44360   0.93510   Biso      1.000     O          -0.515008           
         O21       1.0000    0.33450   0.48820   0.10590   Biso      1.000     O          -0.527933           
         O22       1.0000    0.42710   0.58510   0.07050   Biso      1.000     O          -0.57517  
         O23       1.0000    0.07820   0.65490   0.40280   Biso      1.000     O          -0.558465           
         O24       1.0000    0.57820   0.84510   0.09720   Biso      1.000     O          -0.558465           
         O25       1.0000    0.12420   0.78260   0.41950   Biso      1.000     O          -0.511972           
         O26       1.0000    0.82520   0.53870   0.57650   Biso      1.000     O          -0.554358           
         O27       1.0000    0.04610   0.49170   0.58340   Biso      1.000     O          -0.57089  
         O28       1.0000    0.21400   0.55200   0.59290   Biso      1.000     O          -0.537403           
         O29       1.0000    0.15480   0.70390   0.57310   Biso      1.000     O          -0.502185           
         O30       1.0000    0.32520   0.96130   0.92350   Biso      1.000     O          -0.554356           
         O31       1.0000    0.43930   0.86360   0.94340   Biso      1.000     O          -0.491669           
         O32       1.0000    0.93930   0.63640   0.55660   Biso      1.000     O          -0.491672           
         O33       1.0000    0.95390   0.50830   0.41660   Biso      1.000     O          -0.570889           
         O34       1.0000    0.62790   0.66770   0.89660   Biso      1.000     O          -0.534418           
         O35       1.0000    0.87210   0.16770   0.39660   Biso      1.000     O          -0.534415           
         O36       1.0000    0.78600   0.44800   0.40710   Biso      1.000     O          -0.537403           
         O37       1.0000    0.65480   0.79610   0.92690   Biso      1.000     O          -0.502193           
         O38       1.0000    0.28600   0.05200   0.09290   Biso      1.000     O          -0.537403           
         O39       1.0000    0.45390   0.99170   0.08340   Biso      1.000     O          -0.570891           
         O40       1.0000    0.17230   0.94360   0.43510   Biso      1.000     O          -0.51501  
         O41       1.0000    0.16550   0.98820   0.60590   Biso      1.000     O          -0.527936           
         O42       1.0000    0.08030   0.04090   0.39570   Biso      1.000     O          -0.561702           
         O43       1.0000    0.42180   0.15490   0.90280   Biso      1.000     O          -0.558464           
         O44       1.0000    0.37580   0.28260   0.91950   Biso      1.000     O          -0.511969           
         O45       1.0000    0.56070   0.13640   0.05660   Biso      1.000     O          -0.49167  
         O46       1.0000    0.67480   0.03870   0.07650   Biso      1.000     O          -0.554357           
         O47       1.0000    0.84520   0.29610   0.42690   Biso      1.000     O          -0.502191           
         O48       1.0000    0.07290   0.08510   0.57050   Biso      1.000     O          -0.575168           
         S1        1.0000    0.71060   0.47110   0.25115   Biso      1.000     S          0.166179  
         S2        1.0000    0.21060   0.02890   0.24885   Biso      1.000     S          0.166177  
         S3        1.0000    0.28170   0.09252   0.75164   Biso      1.000     S          0.158509  
         S4        1.0000    0.77000   0.12644   0.23344   Biso      1.000     S          0.156334  
         S5        1.0000    0.78170   0.40748   0.74836   Biso      1.000     S          0.158507  
         S6        1.0000    0.71830   0.90748   0.24836   Biso      1.000     S          0.158505  
         S7        1.0000    0.78940   0.97110   0.75115   Biso      1.000     S          0.16618   
         S8        1.0000    0.23000   0.87356   0.76656   Biso      1.000     S          0.156336  
         S9        1.0000    0.28940   0.52890   0.74885   Biso      1.000     S          0.166179  
         S10       1.0000    0.21830   0.59252   0.25164   Biso      1.000     S          0.158505  
         S11       1.0000    0.73000   0.62644   0.73344   Biso      1.000     S          0.156333  
         S12       1.0000    0.27000   0.37356   0.26656   Biso      1.000     S          0.156337  
         Yb1       1.0000    0.55522   0.60891   0.98499   Biso      1.000     Yb          1.346183  
         Yb2       1.0000    0.10633   0.58427   0.49054   Biso      1.000     Yb          1.338437  
         Yb3       1.0000    0.05522   0.89109   0.51501   Biso      1.000     Yb          1.346178  
         Yb4       1.0000    0.60633   0.91573   0.00946   Biso      1.000     Yb          1.338441  
         Yb5       1.0000    0.44478   0.39109   0.01501   Biso      1.000     Yb          1.346175  
         Yb6       1.0000    0.89367   0.41573   0.50946   Biso      1.000     Yb          1.33844   
         Yb7       1.0000    0.94478   0.10891   0.48499   Biso      1.000     Yb          1.346178  
         Yb8       1.0000    0.39367   0.08427   0.99054   Biso      1.000     Yb          1.33844 