
##########################################################################
#               Crystallographic Information Format file
#               Produced by PyCifRW module
#
#  This is a CIF file.  CIF has been adopted by the International
#  Union of Crystallography as the standard for data archiving and
#  transmission.
#
#  For information on this file format, follow the CIF links at
#  http://www.iucr.org
##########################################################################

data_image0

_cell_length_a                          14.7246
_cell_length_b                          14.7246
_cell_length_c                          10.2236
_cell_angle_alpha                       90
_cell_angle_beta                        90
_cell_angle_gamma                       90
_symmetry_space_group_name_H-M          'P 1'
_symmetry_int_tables_number             1
loop_
  _symmetry_equiv_pos_as_xyz
         'x, y, z' 
loop_
  _atom_site_label
  _atom_site_occupancy
  _atom_site_fract_x
  _atom_site_fract_y
  _atom_site_fract_z
  _atom_site_thermal_displace_type
  _atom_site_B_iso_or_equiv
  _atom_site_type_symbol
  _atom_site_charge
         C1        1.0000    0.83785   0.37545   0.91020   Biso      1.000     C          0.654978  
         C2        1.0000    0.73175   0.80228   0.58550   Biso      1.000     C          0.022119  
         C3        1.0000    0.79369   0.77498   0.68000   Biso      1.000     C          -0.24878899999999998          
         C4        1.0000    0.30228   0.23175   0.08550   Biso      1.000     C          0.022119  
         C5        1.0000    0.83510   0.69924   0.62870   Biso      1.000     C          0.043151  
         C6        1.0000    0.89794   0.62996   0.68350   Biso      1.000     C          0.591322  
         C7        1.0000    0.27498   0.29369   0.18000   Biso      1.000     C          -0.24878899999999998          
         C8        1.0000    0.37545   0.16215   0.08980   Biso      1.000     C          0.654978  
         C9        1.0000    0.39794   0.87004   0.81650   Biso      1.000     C          0.591322  
         C10       1.0000    0.33510   0.80076   0.87130   Biso      1.000     C          0.043149  
         C11       1.0000    0.19924   0.33510   0.12870   Biso      1.000     C          0.043151  
         C12       1.0000    0.12996   0.39794   0.18350   Biso      1.000     C          0.591322  
         C13       1.0000    0.29369   0.72502   0.82000   Biso      1.000     C          -0.24878899999999998          
         C14       1.0000    0.12455   0.66215   0.41020   Biso      1.000     C          0.654978  
         C15       1.0000    0.19772   0.73175   0.41450   Biso      1.000     C          0.022119  
         C16       1.0000    0.22502   0.79369   0.32000   Biso      1.000     C          -0.24878899999999998          
         C17       1.0000    0.30076   0.83510   0.37130   Biso      1.000     C          0.043151  
         C18       1.0000    0.37004   0.89794   0.31650   Biso      1.000     C          0.591322  
         C19       1.0000    0.66215   0.87545   0.58980   Biso      1.000     C          0.654978  
         C20       1.0000    0.23175   0.69772   0.91450   Biso      1.000     C          0.022121000000000002          
         C21       1.0000    0.16215   0.62455   0.91020   Biso      1.000     C          0.654978  
         C22       1.0000    0.76825   0.30228   0.91450   Biso      1.000     C          0.022121000000000002          
         C23       1.0000    0.87004   0.60206   0.18350   Biso      1.000     C          0.591322  
         C24       1.0000    0.80076   0.66490   0.12870   Biso      1.000     C          0.043149  
         C25       1.0000    0.62996   0.10206   0.31650   Biso      1.000     C          0.591322  
         C26       1.0000    0.72502   0.70631   0.18000   Biso      1.000     C          -0.24878899999999998          
         C27       1.0000    0.60206   0.12996   0.81650   Biso      1.000     C          0.591322  
         C28       1.0000    0.69924   0.16490   0.37130   Biso      1.000     C          0.043148  
         C29       1.0000    0.66490   0.19924   0.87130   Biso      1.000     C          0.043148  
         C30       1.0000    0.33785   0.12455   0.58980   Biso      1.000     C          0.654978  
         C31       1.0000    0.87545   0.33785   0.41020   Biso      1.000     C          0.654978  
         C32       1.0000    0.26825   0.19772   0.58550   Biso      1.000     C          0.022119  
         C33       1.0000    0.16490   0.30076   0.62870   Biso      1.000     C          0.043151  
         C34       1.0000    0.10206   0.37004   0.68350   Biso      1.000     C          0.591322  
         C35       1.0000    0.77498   0.20631   0.32000   Biso      1.000     C          -0.24878899999999998          
         C36       1.0000    0.69772   0.76825   0.08550   Biso      1.000     C          0.022121000000000002          
         C37       1.0000    0.62455   0.83785   0.08980   Biso      1.000     C          0.654978  
         C38       1.0000    0.70631   0.27498   0.82000   Biso      1.000     C          -0.24878899999999998          
         C39       1.0000    0.80228   0.26825   0.41450   Biso      1.000     C          0.022121000000000002          
         C40       1.0000    0.20631   0.22502   0.68000   Biso      1.000     C          -0.24878899999999998          
         H1        1.0000    0.80210   0.19520   0.23940   Biso      1.000     H          0.1364    
         H2        1.0000    0.64730   0.18800   0.54900   Biso      1.000     H          0.28028400000000003           
         H3        1.0000    0.31200   0.85270   0.04900   Biso      1.000     H          0.28028400000000003           
         H4        1.0000    0.68800   0.14730   0.04900   Biso      1.000     H          0.28028400000000003           
         H5        1.0000    0.30210   0.30480   0.26060   Biso      1.000     H          0.136399  
         H6        1.0000    0.35270   0.81200   0.54900   Biso      1.000     H          0.280285  
         H7        1.0000    0.30480   0.69790   0.73940   Biso      1.000     H          0.136399  
         H8        1.0000    0.14730   0.31200   0.95100   Biso      1.000     H          0.280285  
         H9        1.0000    0.80480   0.80210   0.76060   Biso      1.000     H          0.1364    
         H10       1.0000    0.81200   0.64730   0.45100   Biso      1.000     H          0.280285  
         H11       1.0000    0.85270   0.68800   0.95100   Biso      1.000     H          0.28028400000000003           
         H12       1.0000    0.69520   0.30210   0.73940   Biso      1.000     H          0.1364    
         H13       1.0000    0.19520   0.19790   0.76060   Biso      1.000     H          0.136399  
         H14       1.0000    0.18800   0.35270   0.45100   Biso      1.000     H          0.280285  
         H15       1.0000    0.69790   0.69520   0.26060   Biso      1.000     H          0.136399  
         H16       1.0000    0.19790   0.80480   0.23940   Biso      1.000     H          0.1364    
         Li1       1.0000    0.94940   0.31810   0.13630   Biso      1.000     Li          0.861784  
         Li2       1.0000    0.44940   0.18190   0.36370   Biso      1.000     Li          0.861784  
         Li3       1.0000    0.81810   0.44940   0.63630   Biso      1.000     Li          0.861784  
         Li4       1.0000    0.68190   0.94940   0.86370   Biso      1.000     Li          0.861784  
         Li5       1.0000    0.55060   0.81810   0.36370   Biso      1.000     Li          0.861784  
         Li6       1.0000    0.31810   0.05060   0.86370   Biso      1.000     Li          0.861784  
         Li7       1.0000    0.18190   0.55060   0.63630   Biso      1.000     Li          0.861784  
         Li8       1.0000    0.05060   0.68190   0.13630   Biso      1.000     Li          0.861784  
         N1        1.0000    0.74849   0.26547   0.51940   Biso      1.000     N          -0.205959           
         N2        1.0000    0.20223   0.31331   0.50880   Biso      1.000     N          -0.129504           
         N3        1.0000    0.26547   0.25151   0.48060   Biso      1.000     N          -0.205934           
         N4        1.0000    0.75151   0.76547   0.98060   Biso      1.000     N          -0.205959           
         N5        1.0000    0.79777   0.68669   0.50880   Biso      1.000     N          -0.129504           
         N6        1.0000    0.73453   0.74849   0.48060   Biso      1.000     N          -0.205934           
         N7        1.0000    0.76547   0.24849   0.01940   Biso      1.000     N          -0.205959           
         N8        1.0000    0.70223   0.18669   0.99120   Biso      1.000     N          -0.129477           
         N9        1.0000    0.18669   0.29777   0.00880   Biso      1.000     N          -0.129504           
         N10       1.0000    0.81331   0.70223   0.00880   Biso      1.000     N          -0.129477           
         N11       1.0000    0.31331   0.79777   0.49120   Biso      1.000     N          -0.129504           
         N12       1.0000    0.25151   0.73453   0.51940   Biso      1.000     N          -0.205934           
         N13       1.0000    0.23453   0.75151   0.01940   Biso      1.000     N          -0.205959           
         N14       1.0000    0.29777   0.81331   0.99120   Biso      1.000     N          -0.129477           
         N15       1.0000    0.68669   0.20223   0.49120   Biso      1.000     N          -0.129477           
         N16       1.0000    0.24849   0.23453   0.98060   Biso      1.000     N          -0.205934           
         O1        1.0000    0.14069   0.42507   0.29901   Biso      1.000     O          -0.609521           
         O2        1.0000    0.85931   0.57493   0.29901   Biso      1.000     O          -0.609521           
         O3        1.0000    0.93701   0.58477   0.11237   Biso      1.000     O          -0.689079           
         O4        1.0000    0.57351   0.84170   0.18731   Biso      1.000     O          -0.714867           
         O5        1.0000    0.61764   0.89131   0.99580   Biso      1.000     O          -0.718256           
         O6        1.0000    0.06299   0.41523   0.11237   Biso      1.000     O          -0.689078           
         O7        1.0000    0.10869   0.61764   0.00420   Biso      1.000     O          -0.718256           
         O8        1.0000    0.38236   0.10869   0.99580   Biso      1.000     O          -0.7182569999999999           
         O9        1.0000    0.39131   0.11764   0.49580   Biso      1.000     O          -0.7182569999999999           
         O10       1.0000    0.34170   0.07351   0.68731   Biso      1.000     O          -0.714867           
         O11       1.0000    0.08477   0.43701   0.61237   Biso      1.000     O          -0.689078           
         O12       1.0000    0.07493   0.35931   0.79901   Biso      1.000     O          -0.609521           
         O13       1.0000    0.60869   0.88236   0.49580   Biso      1.000     O          -0.7182569999999999           
         O14       1.0000    0.65830   0.92649   0.68731   Biso      1.000     O          -0.714867           
         O15       1.0000    0.91523   0.56299   0.61237   Biso      1.000     O          -0.689078           
         O16       1.0000    0.92507   0.64069   0.79901   Biso      1.000     O          -0.609522           
         O17       1.0000    0.11764   0.60869   0.50420   Biso      1.000     O          -0.7182569999999999           
         O18       1.0000    0.07351   0.65830   0.31269   Biso      1.000     O          -0.714867           
         O19       1.0000    0.42649   0.15830   0.18731   Biso      1.000     O          -0.714867           
         O20       1.0000    0.35931   0.92507   0.20099   Biso      1.000     O          -0.609522           
         O21       1.0000    0.43701   0.91523   0.38763   Biso      1.000     O          -0.689078           
         O22       1.0000    0.92649   0.34170   0.31269   Biso      1.000     O          -0.714867           
         O23       1.0000    0.56299   0.08477   0.38763   Biso      1.000     O          -0.689079           
         O24       1.0000    0.64069   0.07493   0.20099   Biso      1.000     O          -0.609521           
         O25       1.0000    0.15830   0.57351   0.81269   Biso      1.000     O          -0.714867           
         O26       1.0000    0.41523   0.93701   0.88763   Biso      1.000     O          -0.689079           
         O27       1.0000    0.42507   0.85931   0.70099   Biso      1.000     O          -0.609521           
         O28       1.0000    0.89131   0.38236   0.00420   Biso      1.000     O          -0.718256           
         O29       1.0000    0.84170   0.42649   0.81269   Biso      1.000     O          -0.714867           
         O30       1.0000    0.58477   0.06299   0.88763   Biso      1.000     O          -0.689079           
         O31       1.0000    0.57493   0.14069   0.70099   Biso      1.000     O          -0.609521           
         O32       1.0000    0.88236   0.39131   0.50420   Biso      1.000     O          -0.718256           
         Sr1       1.0000    0.00000   0.50000   0.90551   Biso      1.000     Sr          1.4518209999999998  
         Sr2       1.0000    0.50000   0.00000   0.59449   Biso      1.000     Sr          1.4518209999999998  
         Sr3       1.0000    0.00000   0.50000   0.40551   Biso      1.000     Sr          1.4518209999999998  
         Sr4       1.0000    0.50000   0.00000   0.09449   Biso      1.000     Sr          1.4518209999999998 