
##########################################################################
#               Crystallographic Information Format file
#               Produced by PyCifRW module
#
#  This is a CIF file.  CIF has been adopted by the International
#  Union of Crystallography as the standard for data archiving and
#  transmission.
#
#  For information on this file format, follow the CIF links at
#  http://www.iucr.org
##########################################################################

data_image0

_cell_length_a                          10.8783
_cell_length_b                          28.3945
_cell_length_c                          9.2141
_cell_angle_alpha                       90
_cell_angle_beta                        90
_cell_angle_gamma                       90
_symmetry_space_group_name_H-M          'P 1'
_symmetry_int_tables_number             1
loop_
  _symmetry_equiv_pos_as_xyz
         'x, y, z' 
loop_
  _atom_site_label
  _atom_site_occupancy
  _atom_site_fract_x
  _atom_site_fract_y
  _atom_site_fract_z
  _atom_site_thermal_displace_type
  _atom_site_B_iso_or_equiv
  _atom_site_type_symbol
  _atom_site_charge
         Ba1       1.0000    0.14080   0.44519   0.02788   Biso      1.000     Ba          1.431466  
         Ba2       1.0000    0.64080   0.05481   0.97212   Biso      1.000     Ba          1.431466  
         Ba3       1.0000    0.50000   0.50000   0.82337   Biso      1.000     Ba          1.438956  
         Ba4       1.0000    0.85920   0.55481   0.02788   Biso      1.000     Ba          1.431468  
         Ba5       1.0000    0.35920   0.94519   0.97212   Biso      1.000     Ba          1.431466  
         Ba6       1.0000    0.00000   0.00000   0.17663   Biso      1.000     Ba          1.438954  
         C1        1.0000    0.80890   0.45850   0.67250   Biso      1.000     C          0.045985  
         C2        1.0000    0.90410   0.45118   0.57490   Biso      1.000     C          -0.234797           
         C3        1.0000    0.85150   0.45499   0.44070   Biso      1.000     C          0.044055  
         C4        1.0000    0.90640   0.45372   0.29350   Biso      1.000     C          0.598003  
         C5        1.0000    0.70110   0.21947   0.98800   Biso      1.000     C          0.064417  
         C6        1.0000    0.67930   0.16780   0.96560   Biso      1.000     C          0.632556  
         C7        1.0000    0.09590   0.54882   0.57490   Biso      1.000     C          -0.234796           
         C8        1.0000    0.19110   0.54150   0.67250   Biso      1.000     C          0.045983  
         C9        1.0000    0.17920   0.53800   0.83240   Biso      1.000     C          0.602068  
         C10       1.0000    0.71950   0.58048   0.68680   Biso      1.000     C          0.588435  
         C11       1.0000    0.69130   0.57742   0.52970   Biso      1.000     C          0.040449  
         C12       1.0000    0.58100   0.56994   0.45980   Biso      1.000     C          -0.258566           
         C13       1.0000    0.59360   0.95372   0.70650   Biso      1.000     C          0.598003  
         C14       1.0000    0.79890   0.71947   0.01200   Biso      1.000     C          0.064416  
         C15       1.0000    0.64850   0.95499   0.55930   Biso      1.000     C          0.044053  
         C16       1.0000    0.59590   0.95118   0.42510   Biso      1.000     C          -0.234791           
         C17       1.0000    0.69110   0.95850   0.32750   Biso      1.000     C          0.045983  
         C18       1.0000    0.67920   0.96200   0.16760   Biso      1.000     C          0.602067  
         C19       1.0000    0.21950   0.91952   0.31320   Biso      1.000     C          0.588435  
         C20       1.0000    0.19130   0.92258   0.47030   Biso      1.000     C          0.040453  
         C21       1.0000    0.52970   0.55589   0.18550   Biso      1.000     C          0.620914  
         C22       1.0000    0.81930   0.84860   0.98920   Biso      1.000     C          0.631881  
         C23       1.0000    0.08100   0.93006   0.54020   Biso      1.000     C          -0.258566           
         C24       1.0000    0.11040   0.93380   0.68850   Biso      1.000     C          0.037985  
         C25       1.0000    0.79580   0.79650   0.99170   Biso      1.000     C          0.062465  
         C26       1.0000    0.02970   0.94411   0.81450   Biso      1.000     C          0.620914  
         C27       1.0000    0.31930   0.65140   0.01080   Biso      1.000     C          0.631881  
         C28       1.0000    0.82070   0.66780   0.03440   Biso      1.000     C          0.632556  
         C29       1.0000    0.61040   0.56620   0.31150   Biso      1.000     C          0.037988  
         C30       1.0000    0.28050   0.41952   0.68680   Biso      1.000     C          0.588435  
         C31       1.0000    0.82080   0.46200   0.83240   Biso      1.000     C          0.602068  
         C32       1.0000    0.14850   0.54501   0.44070   Biso      1.000     C          0.044058  
         C33       1.0000    0.40640   0.04628   0.70650   Biso      1.000     C          0.598003  
         C34       1.0000    0.35150   0.04501   0.55930   Biso      1.000     C          0.044053  
         C35       1.0000    0.40410   0.04882   0.42510   Biso      1.000     C          -0.234791           
         C36       1.0000    0.30890   0.04150   0.32750   Biso      1.000     C          0.045983  
         C37       1.0000    0.32080   0.03800   0.16760   Biso      1.000     C          0.602067  
         C38       1.0000    0.78050   0.08048   0.31320   Biso      1.000     C          0.588435  
         C39       1.0000    0.80870   0.07742   0.47030   Biso      1.000     C          0.040453  
         C40       1.0000    0.32070   0.83220   0.96560   Biso      1.000     C          0.632556  
         C41       1.0000    0.91900   0.06994   0.54020   Biso      1.000     C          -0.258566           
         C42       1.0000    0.88960   0.06620   0.68850   Biso      1.000     C          0.037985  
         C43       1.0000    0.29890   0.78053   0.98800   Biso      1.000     C          0.064417  
         C44       1.0000    0.97030   0.05589   0.81450   Biso      1.000     C          0.620914  
         C45       1.0000    0.68070   0.34860   0.01080   Biso      1.000     C          0.631881  
         C46       1.0000    0.30870   0.42258   0.52970   Biso      1.000     C          0.040453  
         C47       1.0000    0.70420   0.29650   0.00830   Biso      1.000     C          0.062465  
         C48       1.0000    0.20420   0.20350   0.99170   Biso      1.000     C          0.062468  
         C49       1.0000    0.41900   0.43006   0.45980   Biso      1.000     C          -0.258566           
         C50       1.0000    0.38960   0.43380   0.31150   Biso      1.000     C          0.037985  
         C51       1.0000    0.47030   0.44411   0.18550   Biso      1.000     C          0.620914  
         C52       1.0000    0.18070   0.15140   0.98920   Biso      1.000     C          0.631881  
         C53       1.0000    0.36260   0.74067   0.94840   Biso      1.000     C          -0.250666           
         C54       1.0000    0.09360   0.54628   0.29350   Biso      1.000     C          0.598003  
         C55       1.0000    0.86260   0.75933   0.05160   Biso      1.000     C          -0.250666           
         C56       1.0000    0.20110   0.28053   0.01200   Biso      1.000     C          0.064413  
         C57       1.0000    0.17930   0.33220   0.03440   Biso      1.000     C          0.632556  
         C58       1.0000    0.29580   0.70350   0.00830   Biso      1.000     C          0.062465  
         C59       1.0000    0.63740   0.25933   0.94840   Biso      1.000     C          -0.250666           
         C60       1.0000    0.13740   0.24067   0.05160   Biso      1.000     C          -0.250666           
         H1        1.0000    0.01210   0.55510   0.59660   Biso      1.000     H          0.152472  
         H2        1.0000    0.82340   0.96820   0.60700   Biso      1.000     H          0.281864  
         H3        1.0000    0.93590   0.76110   0.10750   Biso      1.000     H          0.146783  
         H4        1.0000    0.50180   0.56780   0.50270   Biso      1.000     H          0.141166  
         H5        1.0000    0.43590   0.73890   0.89250   Biso      1.000     H          0.146783  
         H6        1.0000    0.14500   0.78550   0.10190   Biso      1.000     H          0.287608  
         H7        1.0000    0.85700   0.58280   0.44120   Biso      1.000     H          0.287121  
         H8        1.0000    0.48790   0.05510   0.40340   Biso      1.000     H          0.152472  
         H9        1.0000    0.99820   0.06780   0.49730   Biso      1.000     H          0.141166  
         H10       1.0000    0.35500   0.28550   0.89810   Biso      1.000     H          0.287606  
         H11       1.0000    0.14300   0.41720   0.44120   Biso      1.000     H          0.287123  
         H12       1.0000    0.56410   0.26110   0.89250   Biso      1.000     H          0.146783  
         H13       1.0000    0.67660   0.46820   0.39300   Biso      1.000     H          0.281863  
         H14       1.0000    0.06410   0.23890   0.10750   Biso      1.000     H          0.146783  
         H15       1.0000    0.49820   0.43220   0.50270   Biso      1.000     H          0.141166  
         H16       1.0000    0.98790   0.44490   0.59660   Biso      1.000     H          0.152472  
         H17       1.0000    0.17660   0.03180   0.60700   Biso      1.000     H          0.281864  
         H18       1.0000    0.64300   0.08280   0.55880   Biso      1.000     H          0.287123  
         H19       1.0000    0.85500   0.21450   0.10190   Biso      1.000     H          0.287608  
         H20       1.0000    0.35700   0.91720   0.55880   Biso      1.000     H          0.287123  
         H21       1.0000    0.51210   0.94490   0.40340   Biso      1.000     H          0.152472  
         H22       1.0000    0.64500   0.71450   0.89810   Biso      1.000     H          0.287608  
         H23       1.0000    0.00180   0.93220   0.49730   Biso      1.000     H          0.141166  
         H24       1.0000    0.32340   0.53180   0.39300   Biso      1.000     H          0.281864  
         Li1       1.0000    0.22230   0.06040   0.91160   Biso      1.000     Li          0.813405  
         Li2       1.0000    0.91000   0.33870   0.15750   Biso      1.000     Li          0.827214  
         Li3       1.0000    0.41000   0.16130   0.84250   Biso      1.000     Li          0.827215  
         Li4       1.0000    0.91820   0.11470   0.05910   Biso      1.000     Li          0.831538  
         Li5       1.0000    0.77770   0.93960   0.91160   Biso      1.000     Li          0.813405  
         Li6       1.0000    0.58180   0.61470   0.94090   Biso      1.000     Li          0.831538  
         Li7       1.0000    0.59000   0.83870   0.84250   Biso      1.000     Li          0.827214  
         Li8       1.0000    0.41820   0.38530   0.94090   Biso      1.000     Li          0.831538  
         Li9       1.0000    0.09000   0.66130   0.15750   Biso      1.000     Li          0.827214  
         Li10      1.0000    0.08180   0.88530   0.05910   Biso      1.000     Li          0.831538  
         Li11      1.0000    0.27770   0.56040   0.08840   Biso      1.000     Li          0.813405  
         Li12      1.0000    0.72230   0.43960   0.08840   Biso      1.000     Li          0.813405  
         N1        1.0000    0.20030   0.76627   0.06520   Biso      1.000     N          -0.103493           
         N2        1.0000    0.70100   0.46605   0.60500   Biso      1.000     N          -0.241129           
         N3        1.0000    0.22170   0.42172   0.42420   Biso      1.000     N          -0.106022           
         N4        1.0000    0.26850   0.42856   0.29180   Biso      1.000     N          -0.202616           
         N5        1.0000    0.30350   0.21928   0.92070   Biso      1.000     N          -0.316431           
         N6        1.0000    0.70030   0.73373   0.93480   Biso      1.000     N          -0.103493           
         N7        1.0000    0.69650   0.78072   0.92070   Biso      1.000     N          -0.316397           
         N8        1.0000    0.73150   0.57144   0.29180   Biso      1.000     N          -0.202651           
         N9        1.0000    0.77830   0.57828   0.42420   Biso      1.000     N          -0.105987           
         N10       1.0000    0.26980   0.53595   0.46340   Biso      1.000     N          -0.11546  
         N11       1.0000    0.79970   0.23373   0.06520   Biso      1.000     N          -0.103493           
         N12       1.0000    0.72170   0.07828   0.57580   Biso      1.000     N          -0.106022           
         N13       1.0000    0.29900   0.53395   0.60500   Biso      1.000     N          -0.241106           
         N14       1.0000    0.29970   0.26627   0.93480   Biso      1.000     N          -0.103457           
         N15       1.0000    0.73020   0.46405   0.46340   Biso      1.000     N          -0.115436           
         N16       1.0000    0.23020   0.03595   0.53660   Biso      1.000     N          -0.115459           
         N17       1.0000    0.76980   0.96405   0.53660   Biso      1.000     N          -0.115459           
         N18       1.0000    0.79900   0.96605   0.39500   Biso      1.000     N          -0.241106           
         N19       1.0000    0.20100   0.03395   0.39500   Biso      1.000     N          -0.241106           
         N20       1.0000    0.27830   0.92172   0.57580   Biso      1.000     N          -0.106022           
         N21       1.0000    0.23150   0.92856   0.70820   Biso      1.000     N          -0.202616           
         N22       1.0000    0.19650   0.71928   0.07930   Biso      1.000     N          -0.316397           
         N23       1.0000    0.76850   0.07144   0.70820   Biso      1.000     N          -0.202616           
         N24       1.0000    0.80350   0.28072   0.07930   Biso      1.000     N          -0.316397           
         O1        1.0000    0.50880   0.06540   0.71800   Biso      1.000     O          -0.612091           
         O2        1.0000    0.92530   0.65467   0.07850   Biso      1.000     O          -0.690593           
         O3        1.0000    0.91790   0.95078   0.78840   Biso      1.000     O          -0.635372           
         O4        1.0000    0.00880   0.43460   0.28200   Biso      1.000     O          -0.61209  
         O5        1.0000    0.84700   0.47275   0.19240   Biso      1.000     O          -0.707021           
         O6        1.0000    0.92340   0.45523   0.88530   Biso      1.000     O          -0.599926           
         O7        1.0000    0.72670   0.47477   0.90490   Biso      1.000     O          -0.737888           
         O8        1.0000    0.37480   0.42055   0.76810   Biso      1.000     O          -0.730128           
         O9        1.0000    0.17200   0.41855   0.72660   Biso      1.000     O          -0.573203           
         O10       1.0000    0.58210   0.45078   0.21160   Biso      1.000     O          -0.635373           
         O11       1.0000    0.42130   0.44529   0.06140   Biso      1.000     O          -0.718264           
         O12       1.0000    0.26260   0.12653   0.92860   Biso      1.000     O          -0.717178           
         O13       1.0000    0.08230   0.13693   0.04340   Biso      1.000     O          -0.657667           
         O14       1.0000    0.34700   0.02725   0.80760   Biso      1.000     O          -0.707021           
         O15       1.0000    0.42340   0.04477   0.11470   Biso      1.000     O          -0.599926           
         O16       1.0000    0.76580   0.14104   0.99750   Biso      1.000     O          -0.680878           
         O17       1.0000    0.87480   0.07945   0.23190   Biso      1.000     O          -0.730128           
         O18       1.0000    0.32800   0.91855   0.27340   Biso      1.000     O          -0.573203           
         O19       1.0000    0.12520   0.92055   0.23190   Biso      1.000     O          -0.730128           
         O20       1.0000    0.77330   0.97477   0.09510   Biso      1.000     O          -0.737889           
         O21       1.0000    0.57660   0.95523   0.11470   Biso      1.000     O          -0.599926           
         O22       1.0000    0.65300   0.97275   0.80760   Biso      1.000     O          -0.707021           
         O23       1.0000    0.49120   0.93460   0.71800   Biso      1.000     O          -0.61209  
         O24       1.0000    0.23740   0.62653   0.07140   Biso      1.000     O          -0.717178           
         O25       1.0000    0.41770   0.63693   0.95660   Biso      1.000     O          -0.657667           
         O26       1.0000    0.23420   0.85896   0.99750   Biso      1.000     O          -0.680878           
         O27       1.0000    0.42530   0.84533   0.92150   Biso      1.000     O          -0.690593           
         O28       1.0000    0.07470   0.34533   0.07850   Biso      1.000     O          -0.690593           
         O29       1.0000    0.99120   0.56540   0.28200   Biso      1.000     O          -0.612091           
         O30       1.0000    0.15300   0.52725   0.19240   Biso      1.000     O          -0.707021           
         O31       1.0000    0.07660   0.54477   0.88530   Biso      1.000     O          -0.599926           
         O32       1.0000    0.27330   0.52523   0.90490   Biso      1.000     O          -0.737889           
         O33       1.0000    0.62520   0.57945   0.76810   Biso      1.000     O          -0.730128           
         O34       1.0000    0.82800   0.58145   0.72660   Biso      1.000     O          -0.573204           
         O35       1.0000    0.41790   0.54922   0.21160   Biso      1.000     O          -0.635373           
         O36       1.0000    0.57870   0.55471   0.06140   Biso      1.000     O          -0.718263           
         O37       1.0000    0.73740   0.87347   0.92860   Biso      1.000     O          -0.717178           
         O38       1.0000    0.91770   0.86307   0.04340   Biso      1.000     O          -0.657667           
         O39       1.0000    0.73420   0.64104   0.00250   Biso      1.000     O          -0.680878           
         O40       1.0000    0.57470   0.15467   0.92150   Biso      1.000     O          -0.690593           
         O41       1.0000    0.07870   0.94529   0.93860   Biso      1.000     O          -0.718264           
         O42       1.0000    0.58230   0.36307   0.95660   Biso      1.000     O          -0.657667           
         O43       1.0000    0.76260   0.37347   0.07140   Biso      1.000     O          -0.717178           
         O44       1.0000    0.92130   0.05471   0.93860   Biso      1.000     O          -0.718264           
         O45       1.0000    0.08210   0.04922   0.78840   Biso      1.000     O          -0.635372           
         O46       1.0000    0.67200   0.08145   0.27340   Biso      1.000     O          -0.573203           
         O47       1.0000    0.22670   0.02523   0.09510   Biso      1.000     O          -0.737889           
         O48       1.0000    0.26580   0.35896   0.00250   Biso      1.000     O          -0.680879 