
##########################################################################
#               Crystallographic Information Format file
#               Produced by PyCifRW module
#
#  This is a CIF file.  CIF has been adopted by the International
#  Union of Crystallography as the standard for data archiving and
#  transmission.
#
#  For information on this file format, follow the CIF links at
#  http://www.iucr.org
##########################################################################

data_image0

_cell_length_a                          15.0933
_cell_length_b                          15.0933
_cell_length_c                          10.0587
_cell_angle_alpha                       90
_cell_angle_beta                        90
_cell_angle_gamma                       90
_symmetry_space_group_name_H-M          'P 1'
_symmetry_int_tables_number             1
loop_
  _symmetry_equiv_pos_as_xyz
         'x, y, z' 
loop_
  _atom_site_label
  _atom_site_occupancy
  _atom_site_fract_x
  _atom_site_fract_y
  _atom_site_fract_z
  _atom_site_thermal_displace_type
  _atom_site_B_iso_or_equiv
  _atom_site_type_symbol
  _atom_site_charge
         Ba1       1.0000    0.50000   0.00000   0.10891   Biso      1.000     Ba          1.447914  
         Ba2       1.0000    0.00000   0.50000   0.39109   Biso      1.000     Ba          1.447914  
         Ba3       1.0000    0.50000   0.00000   0.60891   Biso      1.000     Ba          1.447914  
         Ba4       1.0000    0.00000   0.50000   0.89109   Biso      1.000     Ba          1.447914  
         C1        1.0000    0.89660   0.63520   0.68260   Biso      1.000     C          0.578712  
         C2        1.0000    0.27490   0.29550   0.17120   Biso      1.000     C          -0.250729           
         C3        1.0000    0.29790   0.23070   0.07930   Biso      1.000     C          0.027620999999999996          
         C4        1.0000    0.37110   0.16520   0.08470   Biso      1.000     C          0.65456   
         C5        1.0000    0.16520   0.62890   0.91530   Biso      1.000     C          0.65456   
         C6        1.0000    0.77490   0.20450   0.32880   Biso      1.000     C          -0.250728           
         C7        1.0000    0.60340   0.13520   0.81740   Biso      1.000     C          0.578711  
         C8        1.0000    0.79790   0.26930   0.42070   Biso      1.000     C          0.027619  
         C9        1.0000    0.12890   0.66520   0.41530   Biso      1.000     C          0.65456   
         C10       1.0000    0.83270   0.69840   0.62310   Biso      1.000     C          0.051093  
         C11       1.0000    0.20210   0.73070   0.42070   Biso      1.000     C          0.027618  
         C12       1.0000    0.22510   0.79550   0.32880   Biso      1.000     C          -0.250727           
         C13       1.0000    0.87110   0.33480   0.41530   Biso      1.000     C          0.65456   
         C14       1.0000    0.30160   0.83270   0.37690   Biso      1.000     C          0.051097000000000004          
         C15       1.0000    0.36480   0.89660   0.31740   Biso      1.000     C          0.578712  
         C16       1.0000    0.39660   0.86480   0.81740   Biso      1.000     C          0.578712  
         C17       1.0000    0.70450   0.27490   0.82880   Biso      1.000     C          -0.250729           
         C18       1.0000    0.76930   0.29790   0.92070   Biso      1.000     C          0.027620999999999996          
         C19       1.0000    0.66730   0.19840   0.87690   Biso      1.000     C          0.051094  
         C20       1.0000    0.79550   0.77490   0.67120   Biso      1.000     C          -0.250724           
         C21       1.0000    0.73070   0.79790   0.57930   Biso      1.000     C          0.027619  
         C22       1.0000    0.16730   0.30160   0.62310   Biso      1.000     C          0.051093  
         C23       1.0000    0.29550   0.72510   0.82880   Biso      1.000     C          -0.250728           
         C24       1.0000    0.72510   0.70450   0.17120   Biso      1.000     C          -0.250729           
         C25       1.0000    0.33480   0.12890   0.58470   Biso      1.000     C          0.65456   
         C26       1.0000    0.26930   0.20210   0.57930   Biso      1.000     C          0.027617000000000003          
         C27       1.0000    0.20450   0.22510   0.67120   Biso      1.000     C          -0.25072300000000003          
         C28       1.0000    0.86480   0.60340   0.18260   Biso      1.000     C          0.578711  
         C29       1.0000    0.83480   0.37110   0.91530   Biso      1.000     C          0.65456   
         C30       1.0000    0.23070   0.70210   0.92070   Biso      1.000     C          0.027619  
         C31       1.0000    0.10340   0.36480   0.68260   Biso      1.000     C          0.578712  
         C32       1.0000    0.62890   0.83480   0.08470   Biso      1.000     C          0.65456   
         C33       1.0000    0.33270   0.80160   0.87690   Biso      1.000     C          0.051097000000000004          
         C34       1.0000    0.13520   0.39660   0.18260   Biso      1.000     C          0.578711  
         C35       1.0000    0.19840   0.33270   0.12310   Biso      1.000     C          0.051094  
         C36       1.0000    0.63520   0.10340   0.31740   Biso      1.000     C          0.578712  
         C37       1.0000    0.69840   0.16730   0.37690   Biso      1.000     C          0.051097000000000004          
         C38       1.0000    0.66520   0.87110   0.58470   Biso      1.000     C          0.65456   
         C39       1.0000    0.70210   0.76930   0.07930   Biso      1.000     C          0.027620999999999996          
         C40       1.0000    0.80160   0.66730   0.12310   Biso      1.000     C          0.051094  
         H1        1.0000    0.80490   0.18960   0.25120   Biso      1.000     H          0.13764200000000001           
         H2        1.0000    0.31040   0.69510   0.75120   Biso      1.000     H          0.13764200000000001           
         H3        1.0000    0.64300   0.19600   0.55200   Biso      1.000     H          0.282785  
         H4        1.0000    0.14300   0.30400   0.94800   Biso      1.000     H          0.28278400000000004           
         H5        1.0000    0.69600   0.14300   0.05200   Biso      1.000     H          0.28278400000000004           
         H6        1.0000    0.68960   0.30490   0.75120   Biso      1.000     H          0.13764200000000001           
         H7        1.0000    0.19510   0.81040   0.25120   Biso      1.000     H          0.13764200000000001           
         H8        1.0000    0.35700   0.80400   0.55200   Biso      1.000     H          0.282785  
         H9        1.0000    0.81040   0.80490   0.74880   Biso      1.000     H          0.13764200000000001           
         H10       1.0000    0.30490   0.31040   0.24880   Biso      1.000     H          0.13764200000000001           
         H11       1.0000    0.80400   0.64300   0.44800   Biso      1.000     H          0.282785  
         H12       1.0000    0.85700   0.69600   0.94800   Biso      1.000     H          0.28278400000000004           
         H13       1.0000    0.18960   0.19510   0.74880   Biso      1.000     H          0.13764200000000001           
         H14       1.0000    0.19600   0.35700   0.44800   Biso      1.000     H          0.282785  
         H15       1.0000    0.69510   0.68960   0.24880   Biso      1.000     H          0.13764200000000001           
         H16       1.0000    0.30400   0.85700   0.05200   Biso      1.000     H          0.282785  
         Li1       1.0000    0.30940   0.05600   0.86170   Biso      1.000     Li          0.8640680000000001  
         Li2       1.0000    0.69060   0.94400   0.86170   Biso      1.000     Li          0.8640680000000001  
         Li3       1.0000    0.94400   0.30940   0.13830   Biso      1.000     Li          0.8640680000000001  
         Li4       1.0000    0.44400   0.19060   0.36170   Biso      1.000     Li          0.8640680000000001  
         Li5       1.0000    0.55600   0.80940   0.36170   Biso      1.000     Li          0.864067  
         Li6       1.0000    0.05600   0.69060   0.13830   Biso      1.000     Li          0.864067  
         Li7       1.0000    0.19060   0.55600   0.63830   Biso      1.000     Li          0.864067  
         Li8       1.0000    0.80940   0.44400   0.63830   Biso      1.000     Li          0.864067  
         N1        1.0000    0.29010   0.81920   0.99330   Biso      1.000     N          -0.137562           
         N2        1.0000    0.20990   0.31920   0.50670   Biso      1.000     N          -0.137562           
         N3        1.0000    0.27270   0.25950   0.47900   Biso      1.000     N          -0.21203400000000003          
         N4        1.0000    0.75950   0.77270   0.97900   Biso      1.000     N          -0.212058           
         N5        1.0000    0.81920   0.70990   0.00670   Biso      1.000     N          -0.137536           
         N6        1.0000    0.79010   0.68080   0.50670   Biso      1.000     N          -0.137562           
         N7        1.0000    0.72730   0.74050   0.47900   Biso      1.000     N          -0.21203400000000003          
         N8        1.0000    0.24050   0.22730   0.97900   Biso      1.000     N          -0.212058           
         N9        1.0000    0.22730   0.75950   0.02100   Biso      1.000     N          -0.21203400000000003          
         N10       1.0000    0.31920   0.79010   0.49330   Biso      1.000     N          -0.137562           
         N11       1.0000    0.25950   0.72730   0.52100   Biso      1.000     N          -0.21203400000000003          
         N12       1.0000    0.18080   0.29010   0.00670   Biso      1.000     N          -0.137536           
         N13       1.0000    0.77270   0.24050   0.02100   Biso      1.000     N          -0.212058           
         N14       1.0000    0.68080   0.20990   0.49330   Biso      1.000     N          -0.137562           
         N15       1.0000    0.74050   0.27270   0.52100   Biso      1.000     N          -0.21203400000000003          
         N16       1.0000    0.70990   0.18080   0.99330   Biso      1.000     N          -0.137536           
         O1        1.0000    0.87694   0.39032   0.50800   Biso      1.000     O          -0.719306           
         O2        1.0000    0.93546   0.58849   0.12030   Biso      1.000     O          -0.684597           
         O3        1.0000    0.84479   0.57092   0.29400   Biso      1.000     O          -0.600547           
         O4        1.0000    0.66680   0.92370   0.68130   Biso      1.000     O          -0.715666           
         O5        1.0000    0.60968   0.87694   0.49200   Biso      1.000     O          -0.719306           
         O6        1.0000    0.16680   0.57630   0.81870   Biso      1.000     O          -0.715666           
         O7        1.0000    0.41151   0.93546   0.87970   Biso      1.000     O          -0.684596           
         O8        1.0000    0.42908   0.84479   0.70600   Biso      1.000     O          -0.600547           
         O9        1.0000    0.07092   0.34479   0.79400   Biso      1.000     O          -0.600548           
         O10       1.0000    0.08849   0.43546   0.62030   Biso      1.000     O          -0.684596           
         O11       1.0000    0.33320   0.07630   0.68130   Biso      1.000     O          -0.715666           
         O12       1.0000    0.39032   0.12306   0.49200   Biso      1.000     O          -0.719306           
         O13       1.0000    0.57630   0.83320   0.18130   Biso      1.000     O          -0.715666           
         O14       1.0000    0.62306   0.89032   0.99200   Biso      1.000     O          -0.719305           
         O15       1.0000    0.92908   0.65521   0.79400   Biso      1.000     O          -0.600548           
         O16       1.0000    0.92370   0.33320   0.31870   Biso      1.000     O          -0.715666           
         O17       1.0000    0.56454   0.08849   0.37970   Biso      1.000     O          -0.684596           
         O18       1.0000    0.65521   0.07092   0.20600   Biso      1.000     O          -0.600547           
         O19       1.0000    0.34479   0.92908   0.20600   Biso      1.000     O          -0.600547           
         O20       1.0000    0.37694   0.10968   0.99200   Biso      1.000     O          -0.719306           
         O21       1.0000    0.42370   0.16680   0.18130   Biso      1.000     O          -0.715666           
         O22       1.0000    0.06454   0.41151   0.12030   Biso      1.000     O          -0.684597           
         O23       1.0000    0.91151   0.56454   0.62030   Biso      1.000     O          -0.684596           
         O24       1.0000    0.15521   0.42908   0.29400   Biso      1.000     O          -0.600547           
         O25       1.0000    0.57092   0.15521   0.70600   Biso      1.000     O          -0.600547           
         O26       1.0000    0.07630   0.66680   0.31870   Biso      1.000     O          -0.715666           
         O27       1.0000    0.12306   0.60968   0.50800   Biso      1.000     O          -0.719306           
         O28       1.0000    0.58849   0.06454   0.87970   Biso      1.000     O          -0.684597           
         O29       1.0000    0.83320   0.42370   0.81870   Biso      1.000     O          -0.715666           
         O30       1.0000    0.89032   0.37694   0.00800   Biso      1.000     O          -0.719305           
         O31       1.0000    0.43546   0.91151   0.37970   Biso      1.000     O          -0.684596           
         O32       1.0000    0.10968   0.62306   0.00800   Biso      1.000     O          -0.719306 