
##########################################################################
#               Crystallographic Information Format file
#               Produced by PyCifRW module
#
#  This is a CIF file.  CIF has been adopted by the International
#  Union of Crystallography as the standard for data archiving and
#  transmission.
#
#  For information on this file format, follow the CIF links at
#  http://www.iucr.org
##########################################################################

data_image0

_cell_length_a                          12.902
_cell_length_b                          13.03
_cell_length_c                          13.101
_cell_angle_alpha                       70.26
_cell_angle_beta                        73.03
_cell_angle_gamma                       71.98
_symmetry_space_group_name_H-M          'P 1'
_symmetry_int_tables_number             1
loop_
  _symmetry_equiv_pos_as_xyz
         'x, y, z' 
loop_
  _atom_site_label
  _atom_site_occupancy
  _atom_site_fract_x
  _atom_site_fract_y
  _atom_site_fract_z
  _atom_site_thermal_displace_type
  _atom_site_B_iso_or_equiv
  _atom_site_type_symbol
  _atom_site_charge
         C1        1.0000    0.60680   0.29350   0.30910   Biso      1.000     C          0.558262  
         C2        1.0000    0.40220   0.68050   0.80900   Biso      1.000     C          0.10887100000000001           
         C3        1.0000    0.31170   0.68490   0.89670   Biso      1.000     C          -0.13864400000000002          
         C4        1.0000    0.32930   0.66620   0.00120   Biso      1.000     C          -0.020784999999999998         
         C5        1.0000    0.43850   0.64280   0.01500   Biso      1.000     C          -0.141032           
         C6        1.0000    0.52380   0.63890   0.92250   Biso      1.000     C          0.113533  
         C7        1.0000    0.64570   0.61620   0.92780   Biso      1.000     C          0.564952  
         C8        1.0000    0.39320   0.70650   0.69090   Biso      1.000     C          0.5582630000000001  
         C9        1.0000    0.35940   0.07650   0.47510   Biso      1.000     C          0.116817  
         C10       1.0000    0.47620   0.36110   0.07750   Biso      1.000     C          0.113602  
         C11       1.0000    0.56150   0.35720   0.98500   Biso      1.000     C          -0.141164           
         C12       1.0000    0.67070   0.33380   0.99880   Biso      1.000     C          -0.020897           
         C13       1.0000    0.68830   0.31510   0.10330   Biso      1.000     C          -0.138659           
         C14       1.0000    0.92810   0.63580   0.62010   Biso      1.000     C          0.56009   
         C15       1.0000    0.59780   0.31950   0.19100   Biso      1.000     C          0.10889800000000001           
         C16       1.0000    0.35430   0.38380   0.07220   Biso      1.000     C          0.5649529999999999  
         C17       1.0000    0.30900   0.61350   0.28280   Biso      1.000     C          0.532506  
         C18       1.0000    0.18930   0.60630   0.30850   Biso      1.000     C          0.097317  
         C19       1.0000    0.10000   0.69850   0.30460   Biso      1.000     C          -0.138436           
         C20       1.0000    0.99460   0.68000   0.32800   Biso      1.000     C          -0.017399           
         C21       1.0000    0.98240   0.57180   0.35380   Biso      1.000     C          -0.134927           
         C22       1.0000    0.07510   0.48460   0.35590   Biso      1.000     C          0.10926199999999998           
         C23       1.0000    0.29230   0.30350   0.60290   Biso      1.000     C          0.555163  
         C24       1.0000    0.31910   0.18410   0.59460   Biso      1.000     C          0.118099  
         C25       1.0000    0.31600   0.09270   0.68620   Biso      1.000     C          -0.144345           
         C26       1.0000    0.33770   0.98740   0.66910   Biso      1.000     C          -0.01702  
         C27       1.0000    0.36040   0.97870   0.56060   Biso      1.000     C          -0.13431600000000002          
         C28       1.0000    0.07190   0.36420   0.37990   Biso      1.000     C          0.560025  
         C29       1.0000    0.69100   0.38650   0.71720   Biso      1.000     C          0.532414  
         C30       1.0000    0.37990   0.07640   0.35610   Biso      1.000     C          0.5508649999999999  
         C31       1.0000    0.90000   0.30150   0.69540   Biso      1.000     C          -0.138423           
         C32       1.0000    0.81070   0.39370   0.69150   Biso      1.000     C          0.097203  
         C33       1.0000    0.68400   0.90730   0.31380   Biso      1.000     C          -0.144257           
         C34       1.0000    0.66230   0.01260   0.33090   Biso      1.000     C          -0.016942           
         C35       1.0000    0.63960   0.02130   0.43940   Biso      1.000     C          -0.134244           
         C36       1.0000    0.64060   0.92350   0.52490   Biso      1.000     C          0.116881  
         C37       1.0000    0.68090   0.81590   0.40540   Biso      1.000     C          0.11813599999999999           
         C38       1.0000    0.70770   0.69650   0.39710   Biso      1.000     C          0.555221  
         C39       1.0000    0.92490   0.51540   0.64410   Biso      1.000     C          0.10935299999999999           
         C40       1.0000    0.01760   0.42820   0.64620   Biso      1.000     C          -0.134761           
         C41       1.0000    0.00540   0.32000   0.67200   Biso      1.000     C          -0.017287           
         C42       1.0000    0.62010   0.92360   0.64390   Biso      1.000     C          0.5509930000000001  
         H1        1.0000    0.29990   0.10100   0.75730   Biso      1.000     H          0.126671  
         H2        1.0000    0.33710   0.92370   0.72900   Biso      1.000     H          0.112158  
         H3        1.0000    0.37560   0.90960   0.54660   Biso      1.000     H          0.12823800000000002           
         H4        1.0000    0.91190   0.55830   0.36950   Biso      1.000     H          0.130882  
         H5        1.0000    0.93240   0.73980   0.32650   Biso      1.000     H          0.112533  
         H6        1.0000    0.11040   0.77050   0.28680   Biso      1.000     H          0.130046  
         H7        1.0000    0.73040   0.33080   0.93870   Biso      1.000     H          0.11560799999999999           
         H8        1.0000    0.54680   0.36970   0.91580   Biso      1.000     H          0.127315  
         H9        1.0000    0.45830   0.68370   0.49520   Biso      1.000     H          0.368506  
         H10       1.0000    0.22470   0.97680   0.15280   Biso      1.000     H          0.43196599999999996           
         H11       1.0000    0.71150   0.39140   0.51630   Biso      1.000     H          0.344846  
         H12       1.0000    0.70010   0.89900   0.24270   Biso      1.000     H          0.1267    
         H13       1.0000    0.76010   0.29980   0.11450   Biso      1.000     H          0.12885   
         H14       1.0000    0.93850   0.50520   0.12590   Biso      1.000     H          0.355697  
         H15       1.0000    0.66290   0.07630   0.27100   Biso      1.000     H          0.11218900000000001           
         H16       1.0000    0.45320   0.63030   0.08420   Biso      1.000     H          0.127385  
         H17       1.0000    0.06150   0.49480   0.87410   Biso      1.000     H          0.35562   
         H18       1.0000    0.28850   0.60860   0.48370   Biso      1.000     H          0.344926  
         H19       1.0000    0.62440   0.09040   0.45340   Biso      1.000     H          0.128255  
         H20       1.0000    0.08810   0.44170   0.63050   Biso      1.000     H          0.130932  
         H21       1.0000    0.06760   0.26020   0.67350   Biso      1.000     H          0.11255599999999999           
         H22       1.0000    0.88960   0.22950   0.71320   Biso      1.000     H          0.13005899999999998           
         H23       1.0000    0.23990   0.70020   0.88550   Biso      1.000     H          0.128859  
         H24       1.0000    0.26960   0.66920   0.06130   Biso      1.000     H          0.115651  
         H25       1.0000    0.77530   0.02320   0.84720   Biso      1.000     H          0.432324  
         H26       1.0000    0.54170   0.31630   0.50480   Biso      1.000     H          0.368568  
         N1        1.0000    0.65950   0.82460   0.50870   Biso      1.000     N          -0.245502           
         N2        1.0000    0.50740   0.65660   0.82290   Biso      1.000     N          -0.244184           
         N3        1.0000    0.34050   0.17540   0.49130   Biso      1.000     N          -0.24569000000000002          
         N4        1.0000    0.49260   0.34340   0.17710   Biso      1.000     N          -0.244229           
         N5        1.0000    0.17620   0.50190   0.33400   Biso      1.000     N          -0.247746           
         N6        1.0000    0.82380   0.49810   0.66600   Biso      1.000     N          -0.24753200000000003          
         Na1       1.0000    0.84240   0.34850   0.32110   Biso      1.000     Na          0.858284  
         Na2       1.0000    0.32160   0.32680   0.84650   Biso      1.000     Na          0.918175  
         Na3       1.0000    0.31650   0.84820   0.33610   Biso      1.000     Na          0.865611  
         Na4       1.0000    0.15760   0.65150   0.67890   Biso      1.000     Na          0.85831   
         Na5       1.0000    0.67840   0.67320   0.15350   Biso      1.000     Na          0.9181739999999999  
         Na6       1.0000    0.68350   0.15180   0.66390   Biso      1.000     Na          0.865733  
         O1        1.0000    0.13810   0.49340   0.84120   Biso      1.000     O          -0.6693520000000001           
         O2        1.0000    0.38430   0.17190   0.28610   Biso      1.000     O          -0.464533           
         O3        1.0000    0.38650   0.99010   0.33240   Biso      1.000     O          -0.538285           
         O4        1.0000    0.26700   0.32050   0.69440   Biso      1.000     O          -0.598212           
         O5        1.0000    0.29600   0.37890   0.50950   Biso      1.000     O          -0.41960600000000003          
         O6        1.0000    0.38020   0.52040   0.28820   Biso      1.000     O          -0.47120500000000004          
         O7        1.0000    0.32900   0.70730   0.25520   Biso      1.000     O          -0.548856           
         O8        1.0000    0.16460   0.29370   0.38720   Biso      1.000     O          -0.473    
         O9        1.0000    0.28560   0.39530   0.16460   Biso      1.000     O          -0.48413999999999996          
         O10       1.0000    0.33010   0.39020   0.98750   Biso      1.000     O          -0.5796939999999999           
         O11       1.0000    0.70090   0.26650   0.33100   Biso      1.000     O          -0.582905           
         O12       1.0000    0.51400   0.29730   0.37970   Biso      1.000     O          -0.511536           
         O13       1.0000    0.44260   0.70490   0.42530   Biso      1.000     O          -0.547229           
         O14       1.0000    0.86190   0.50660   0.15880   Biso      1.000     O          -0.669381           
         O15       1.0000    0.98280   0.34100   0.39260   Biso      1.000     O          -0.5589890000000001           
         O16       1.0000    0.70400   0.42860   0.44800   Biso      1.000     O          -0.517403           
         O17       1.0000    0.20250   0.96930   0.21310   Biso      1.000     O          -0.7226640000000001           
         O18       1.0000    0.61570   0.82810   0.71390   Biso      1.000     O          -0.464581           
         O19       1.0000    0.61350   0.00990   0.66760   Biso      1.000     O          -0.538474           
         O20       1.0000    0.73300   0.67950   0.30560   Biso      1.000     O          -0.598244           
         O21       1.0000    0.70400   0.62110   0.49050   Biso      1.000     O          -0.41977600000000004          
         O22       1.0000    0.61980   0.47960   0.71180   Biso      1.000     O          -0.47042399999999995          
         O23       1.0000    0.67100   0.29270   0.74480   Biso      1.000     O          -0.548124           
         O24       1.0000    0.01720   0.65900   0.60740   Biso      1.000     O          -0.558992           
         O25       1.0000    0.83540   0.70630   0.61280   Biso      1.000     O          -0.47296800000000006          
         O26       1.0000    0.71440   0.60470   0.83540   Biso      1.000     O          -0.484117           
         O27       1.0000    0.66990   0.60980   0.01250   Biso      1.000     O          -0.579696           
         O28       1.0000    0.29910   0.73350   0.66900   Biso      1.000     O          -0.5827600000000001           
         O29       1.0000    0.48600   0.70270   0.62030   Biso      1.000     O          -0.511648           
         O30       1.0000    0.55740   0.29510   0.57470   Biso      1.000     O          -0.5474399999999999           
         O31       1.0000    0.79750   0.03070   0.78690   Biso      1.000     O          -0.722304           
         O32       1.0000    0.29600   0.57140   0.55200   Biso      1.000     O          -0.517512           
         Yb1       1.0000    0.33729   0.34293   0.33563   Biso      1.000     Yb          1.069689  
         Yb2       1.0000    0.66271   0.65707   0.66437   Biso      1.000     Yb          1.069477 