
##########################################################################
#               Crystallographic Information Format file
#               Produced by PyCifRW module
#
#  This is a CIF file.  CIF has been adopted by the International
#  Union of Crystallography as the standard for data archiving and
#  transmission.
#
#  For information on this file format, follow the CIF links at
#  http://www.iucr.org
##########################################################################

data_image0

_cell_length_a                          12.8331
_cell_length_b                          15.626
_cell_length_c                          7.545
_cell_angle_alpha                       90
_cell_angle_beta                        93.225
_cell_angle_gamma                       90
_symmetry_space_group_name_H-M          'P 1'
_symmetry_int_tables_number             1
loop_
  _symmetry_equiv_pos_as_xyz
         'x, y, z' 
loop_
  _atom_site_label
  _atom_site_occupancy
  _atom_site_fract_x
  _atom_site_fract_y
  _atom_site_fract_z
  _atom_site_thermal_displace_type
  _atom_site_B_iso_or_equiv
  _atom_site_type_symbol
  _atom_site_charge
         C1        1.0000    0.59220   0.38540   0.58950   Biso      1.000     C          0.581839  
         C2        1.0000    0.70480   0.31780   0.19020   Biso      1.000     C          -0.059483           
         C3        1.0000    0.47220   0.22510   0.97190   Biso      1.000     C          0.009681  
         C4        1.0000    0.77820   0.64770   0.55300   Biso      1.000     C          -0.36843200000000004          
         C5        1.0000    0.47220   0.77490   0.47190   Biso      1.000     C          0.009681  
         C6        1.0000    0.40780   0.38540   0.91050   Biso      1.000     C          0.5818399999999999  
         C7        1.0000    0.61320   0.18060   0.09940   Biso      1.000     C          0.125412  
         C8        1.0000    0.62330   0.24100   0.61740   Biso      1.000     C          0.076014  
         C9        1.0000    0.85520   0.41730   0.13260   Biso      1.000     C          0.676543  
         C10       1.0000    0.37670   0.24100   0.88260   Biso      1.000     C          0.076014  
         C11       1.0000    0.62330   0.75900   0.11740   Biso      1.000     C          0.076013  
         C12       1.0000    0.52960   0.70330   0.52300   Biso      1.000     C          0.24298899999999998           
         C13       1.0000    0.38680   0.81940   0.90060   Biso      1.000     C          0.125412  
         C14       1.0000    0.59220   0.61460   0.08950   Biso      1.000     C          0.581839  
         C15       1.0000    0.38680   0.18060   0.40060   Biso      1.000     C          0.125412  
         C16       1.0000    0.85520   0.58270   0.63260   Biso      1.000     C          0.676542  
         C17       1.0000    0.52960   0.29670   0.02300   Biso      1.000     C          0.24298899999999998           
         C18       1.0000    0.47040   0.70330   0.97700   Biso      1.000     C          0.242986  
         C19       1.0000    0.70480   0.68220   0.69020   Biso      1.000     C          -0.059483           
         C20       1.0000    0.22180   0.35230   0.44700   Biso      1.000     C          -0.36843200000000004          
         C21       1.0000    0.52780   0.77490   0.02810   Biso      1.000     C          0.009684  
         C22       1.0000    0.40780   0.61460   0.41050   Biso      1.000     C          0.5818399999999999  
         C23       1.0000    0.61320   0.81940   0.59940   Biso      1.000     C          0.125412  
         C24       1.0000    0.14480   0.41730   0.36740   Biso      1.000     C          0.676542  
         C25       1.0000    0.14480   0.58270   0.86740   Biso      1.000     C          0.676543  
         C26       1.0000    0.29520   0.31780   0.30980   Biso      1.000     C          -0.059483           
         C27       1.0000    0.37670   0.75900   0.38260   Biso      1.000     C          0.076014  
         C28       1.0000    0.22180   0.64770   0.94700   Biso      1.000     C          -0.36843200000000004          
         C29       1.0000    0.52780   0.22510   0.52810   Biso      1.000     C          0.009681  
         C30       1.0000    0.47040   0.29670   0.47700   Biso      1.000     C          0.24298899999999998           
         C31       1.0000    0.77820   0.35230   0.05300   Biso      1.000     C          -0.36843200000000004          
         C32       1.0000    0.29520   0.68220   0.80980   Biso      1.000     C          -0.059483           
         Cd1       1.0000    0.50000   0.00000   0.50000   Biso      1.000     Cd          0.9688979999999999  
         Cd2       1.0000    0.50000   0.00000   0.00000   Biso      1.000     Cd          0.9688979999999999  
         Cd3       1.0000    0.00000   0.45889   0.75000   Biso      1.000     Cd          1.038442  
         Cd4       1.0000    0.00000   0.54111   0.25000   Biso      1.000     Cd          1.038442  
         H1        1.0000    0.41330   0.50730   0.90700   Biso      1.000     H          0.333999  
         H2        1.0000    0.74460   0.28280   0.27600   Biso      1.000     H          0.111273  
         H3        1.0000    0.31580   0.47240   0.81820   Biso      1.000     H          0.34494600000000003           
         H4        1.0000    0.33530   0.19550   0.84140   Biso      1.000     H          0.111535  
         H5        1.0000    0.25540   0.28280   0.22400   Biso      1.000     H          0.111273  
         H6        1.0000    0.81650   0.30500   0.00460   Biso      1.000     H          0.142585  
         H7        1.0000    0.73700   0.37870   0.95610   Biso      1.000     H          0.153506  
         H8        1.0000    0.26300   0.37870   0.54390   Biso      1.000     H          0.153506  
         H9        1.0000    0.18350   0.30500   0.49540   Biso      1.000     H          0.142585  
         H10       1.0000    0.68420   0.47240   0.68180   Biso      1.000     H          0.34494600000000003           
         H11       1.0000    0.58670   0.50730   0.59300   Biso      1.000     H          0.333999  
         H12       1.0000    0.67590   0.36550   0.25340   Biso      1.000     H          0.111266  
         H13       1.0000    0.66560   0.14500   0.14690   Biso      1.000     H          0.10691099999999999           
         H14       1.0000    0.66560   0.85500   0.64690   Biso      1.000     H          0.10690999999999999           
         H15       1.0000    0.66470   0.80450   0.15860   Biso      1.000     H          0.111536  
         H16       1.0000    0.26300   0.62130   0.04390   Biso      1.000     H          0.153506  
         H17       1.0000    0.18350   0.69500   0.99540   Biso      1.000     H          0.142585  
         H18       1.0000    0.68420   0.52760   0.18180   Biso      1.000     H          0.34494600000000003           
         H19       1.0000    0.58670   0.49270   0.09300   Biso      1.000     H          0.333999  
         H20       1.0000    0.32410   0.63450   0.74660   Biso      1.000     H          0.111266  
         H21       1.0000    0.25540   0.71720   0.72400   Biso      1.000     H          0.111273  
         H22       1.0000    0.33440   0.85500   0.85310   Biso      1.000     H          0.10690999999999999           
         H23       1.0000    0.33440   0.14500   0.35310   Biso      1.000     H          0.10691099999999999           
         H24       1.0000    0.66470   0.19550   0.65860   Biso      1.000     H          0.111535  
         H25       1.0000    0.73700   0.62130   0.45610   Biso      1.000     H          0.153506  
         H26       1.0000    0.81650   0.69500   0.50460   Biso      1.000     H          0.142585  
         H27       1.0000    0.32410   0.36550   0.24660   Biso      1.000     H          0.111266  
         H28       1.0000    0.31580   0.52760   0.31820   Biso      1.000     H          0.34494600000000003           
         H29       1.0000    0.41330   0.49270   0.40700   Biso      1.000     H          0.333999  
         H30       1.0000    0.33530   0.80450   0.34140   Biso      1.000     H          0.111536  
         H31       1.0000    0.74460   0.71720   0.77600   Biso      1.000     H          0.111273  
         H32       1.0000    0.67590   0.63450   0.75340   Biso      1.000     H          0.111266  
         N1        1.0000    0.52780   0.15060   0.01840   Biso      1.000     N          -0.296263           
         N2        1.0000    0.38020   0.73300   0.89100   Biso      1.000     N          -0.044752999999999994         
         N3        1.0000    0.47220   0.15060   0.48160   Biso      1.000     N          -0.296263           
         N4        1.0000    0.65540   0.31970   0.64400   Biso      1.000     N          -0.43556000000000006          
         N5        1.0000    0.49750   0.62250   0.00090   Biso      1.000     N          -0.463142           
         N6        1.0000    0.50250   0.37750   0.99910   Biso      1.000     N          -0.463142           
         N7        1.0000    0.62490   0.46430   0.62570   Biso      1.000     N          -0.72407  
         N8        1.0000    0.62490   0.53570   0.12570   Biso      1.000     N          -0.72407  
         N9        1.0000    0.49750   0.37750   0.50090   Biso      1.000     N          -0.463142           
         N10       1.0000    0.37510   0.53570   0.37430   Biso      1.000     N          -0.72407  
         N11       1.0000    0.38020   0.26700   0.39100   Biso      1.000     N          -0.044752999999999994         
         N12       1.0000    0.47220   0.84940   0.98160   Biso      1.000     N          -0.296263           
         N13       1.0000    0.52780   0.84940   0.51840   Biso      1.000     N          -0.296263           
         N14       1.0000    0.37510   0.46430   0.87430   Biso      1.000     N          -0.72407  
         N15       1.0000    0.34460   0.68030   0.35600   Biso      1.000     N          -0.43556000000000006          
         N16       1.0000    0.61980   0.73300   0.60900   Biso      1.000     N          -0.044754           
         N17       1.0000    0.50250   0.62250   0.49910   Biso      1.000     N          -0.463142           
         N18       1.0000    0.34460   0.31970   0.85600   Biso      1.000     N          -0.43556000000000006          
         N19       1.0000    0.65540   0.68030   0.14400   Biso      1.000     N          -0.43556000000000006          
         N20       1.0000    0.61980   0.26700   0.10900   Biso      1.000     N          -0.044754           
         O1        1.0000    0.41010   0.00890   0.72480   Biso      1.000     O          -0.589923           
         O2        1.0000    0.16880   0.54100   0.73390   Biso      1.000     O          -0.5443979999999999           
         O3        1.0000    0.16880   0.45900   0.23390   Biso      1.000     O          -0.5443979999999999           
         O4        1.0000    0.58990   0.00890   0.77520   Biso      1.000     O          -0.589923           
         O5        1.0000    0.83120   0.45900   0.26610   Biso      1.000     O          -0.5443979999999999           
         O6        1.0000    0.58990   0.99110   0.27520   Biso      1.000     O          -0.589925           
         O7        1.0000    0.93810   0.57110   0.55800   Biso      1.000     O          -0.6061439999999999           
         O8        1.0000    0.83120   0.54100   0.76610   Biso      1.000     O          -0.5443979999999999           
         O9        1.0000    0.41010   0.99110   0.22480   Biso      1.000     O          -0.589925           
         O10       1.0000    0.06190   0.57110   0.94200   Biso      1.000     O          -0.6061439999999999           
         O11       1.0000    0.06190   0.42890   0.44200   Biso      1.000     O          -0.6061439999999999           
         O12       1.0000    0.93810   0.42890   0.05800   Biso      1.000     O          -0.6061439999999999 