
##########################################################################
#               Crystallographic Information Format file
#               Produced by PyCifRW module
#
#  This is a CIF file.  CIF has been adopted by the International
#  Union of Crystallography as the standard for data archiving and
#  transmission.
#
#  For information on this file format, follow the CIF links at
#  http://www.iucr.org
##########################################################################

data_image0

_cell_length_a                          38.1861
_cell_length_b                          5.0042
_cell_length_c                          8.381
_cell_angle_alpha                       90
_cell_angle_beta                        102.535
_cell_angle_gamma                       90
_symmetry_space_group_name_H-M          'P 1'
_symmetry_int_tables_number             1
loop_
  _symmetry_equiv_pos_as_xyz
         'x, y, z' 
loop_
  _atom_site_label
  _atom_site_occupancy
  _atom_site_fract_x
  _atom_site_fract_y
  _atom_site_fract_z
  _atom_site_thermal_displace_type
  _atom_site_B_iso_or_equiv
  _atom_site_type_symbol
  _atom_site_charge
         Al1       1.0000    0.36248   0.00000   0.64530   Biso      1.000     Al          1.832373  
         Al2       1.0000    0.10799   0.00000   0.84580   Biso      1.000     Al          1.83513   
         Al3       1.0000    0.86248   0.50000   0.64530   Biso      1.000     Al          1.832373  
         Al4       1.0000    0.60799   0.50000   0.84580   Biso      1.000     Al          1.835131  
         Al5       1.0000    0.89201   0.00000   0.15420   Biso      1.000     Al          1.8351279999999999  
         Al6       1.0000    0.63752   0.00000   0.35470   Biso      1.000     Al          1.832369  
         Al7       1.0000    0.13752   0.50000   0.35470   Biso      1.000     Al          1.832369  
         Al8       1.0000    0.39201   0.50000   0.15420   Biso      1.000     Al          1.835127  
         C1        1.0000    0.76157   0.00000   0.89270   Biso      1.000     C          -0.07083500000000001          
         C2        1.0000    0.72452   0.00000   0.88040   Biso      1.000     C          -0.066974           
         C3        1.0000    0.29855   0.00000   0.27170   Biso      1.000     C          -0.16556700000000002          
         C4        1.0000    0.27548   0.00000   0.11960   Biso      1.000     C          -0.066975           
         C5        1.0000    0.23843   0.00000   0.10730   Biso      1.000     C          -0.07083400000000001          
         C6        1.0000    0.22477   0.00000   0.24740   Biso      1.000     C          -0.158592           
         C7        1.0000    0.24784   0.00000   0.39960   Biso      1.000     C          -0.06807200000000001          
         C8        1.0000    0.28489   0.00000   0.41180   Biso      1.000     C          -0.099382           
         C9        1.0000    0.47829   0.00000   0.84569   Biso      1.000     C          -0.064444           
         C10       1.0000    0.72477   0.50000   0.24740   Biso      1.000     C          -0.158594           
         C11       1.0000    0.48465   0.00000   0.13510   Biso      1.000     C          -0.072489           
         C12       1.0000    0.70145   0.00000   0.72830   Biso      1.000     C          -0.16556600000000002          
         C13       1.0000    0.98465   0.50000   0.13510   Biso      1.000     C          -0.072488           
         C14       1.0000    0.97829   0.50000   0.84569   Biso      1.000     C          -0.064441           
         C15       1.0000    0.96314   0.50000   0.98240   Biso      1.000     C          -0.214367           
         C16       1.0000    0.79855   0.50000   0.27170   Biso      1.000     C          -0.16556700000000002          
         C17       1.0000    0.77548   0.50000   0.11960   Biso      1.000     C          -0.066975           
         C18       1.0000    0.78489   0.50000   0.41180   Biso      1.000     C          -0.099383           
         C19       1.0000    0.46314   0.00000   0.98240   Biso      1.000     C          -0.21436599999999997          
         C20       1.0000    0.77523   0.00000   0.75260   Biso      1.000     C          -0.158591           
         C21       1.0000    0.73843   0.50000   0.10730   Biso      1.000     C          -0.07083099999999999          
         C22       1.0000    0.71511   0.00000   0.58820   Biso      1.000     C          -0.099383           
         C23       1.0000    0.01535   0.50000   0.86490   Biso      1.000     C          -0.072482           
         C24       1.0000    0.02171   0.50000   0.15431   Biso      1.000     C          -0.064435           
         C25       1.0000    0.03686   0.50000   0.01760   Biso      1.000     C          -0.21436799999999998          
         C26       1.0000    0.21511   0.50000   0.58820   Biso      1.000     C          -0.099384           
         C27       1.0000    0.75216   0.00000   0.60040   Biso      1.000     C          -0.068071           
         C28       1.0000    0.25216   0.50000   0.60040   Biso      1.000     C          -0.06807200000000001          
         C29       1.0000    0.27523   0.50000   0.75260   Biso      1.000     C          -0.158592           
         C30       1.0000    0.26157   0.50000   0.89270   Biso      1.000     C          -0.070832           
         C31       1.0000    0.22452   0.50000   0.88040   Biso      1.000     C          -0.066975           
         C32       1.0000    0.74784   0.50000   0.39960   Biso      1.000     C          -0.068071           
         C33       1.0000    0.53686   0.00000   0.01760   Biso      1.000     C          -0.21438600000000002          
         C34       1.0000    0.52171   0.00000   0.15431   Biso      1.000     C          -0.06443099999999999          
         C35       1.0000    0.51535   0.00000   0.86490   Biso      1.000     C          -0.072463           
         C36       1.0000    0.20145   0.50000   0.72830   Biso      1.000     C          -0.16556600000000002          
         H1        1.0000    0.52580   0.00000   0.77051   Biso      1.000     H          0.096545  
         H2        1.0000    0.19911   0.50000   0.48263   Biso      1.000     H          0.10335899999999999           
         H3        1.0000    0.26163   0.50000   0.50329   Biso      1.000     H          0.111187  
         H4        1.0000    0.27758   0.50000   0.99825   Biso      1.000     H          0.117776  
         H5        1.0000    0.21504   0.50000   0.97758   Biso      1.000     H          0.119673  
         H6        1.0000    0.78496   0.50000   0.02242   Biso      1.000     H          0.119673  
         H7        1.0000    0.72242   0.50000   0.00175   Biso      1.000     H          0.117776  
         H8        1.0000    0.71504   0.00000   0.97758   Biso      1.000     H          0.119673  
         H9        1.0000    0.80089   0.50000   0.51737   Biso      1.000     H          0.10335799999999999           
         H10       1.0000    0.96313   0.50000   0.73810   Biso      1.000     H          0.109707  
         H11       1.0000    0.77758   0.00000   0.99825   Biso      1.000     H          0.117776  
         H12       1.0000    0.76163   0.00000   0.50329   Biso      1.000     H          0.111187  
         H13       1.0000    0.69911   0.00000   0.48263   Biso      1.000     H          0.10335899999999999           
         H14       1.0000    0.53687   0.00000   0.26190   Biso      1.000     H          0.109707  
         H15       1.0000    0.73837   0.50000   0.49671   Biso      1.000     H          0.111187  
         H16       1.0000    0.97420   0.50000   0.22949   Biso      1.000     H          0.096548  
         H17       1.0000    0.02580   0.50000   0.77051   Biso      1.000     H          0.09655   
         H18       1.0000    0.22242   0.00000   0.00175   Biso      1.000     H          0.117776  
         H19       1.0000    0.47420   0.00000   0.22949   Biso      1.000     H          0.096551  
         H20       1.0000    0.46313   0.00000   0.73810   Biso      1.000     H          0.10970999999999999           
         H21       1.0000    0.30089   0.00000   0.51737   Biso      1.000     H          0.10335799999999999           
         H22       1.0000    0.23837   0.00000   0.49671   Biso      1.000     H          0.111187  
         H23       1.0000    0.03687   0.50000   0.26190   Biso      1.000     H          0.10970899999999999           
         H24       1.0000    0.28496   0.00000   0.02242   Biso      1.000     H          0.119673  
         O1        1.0000    0.09503   0.73660   0.95370   Biso      1.000     O          -0.885921           
         O2        1.0000    0.33441   0.25380   0.68640   Biso      1.000     O          -0.8604870000000001           
         O3        1.0000    0.14222   0.74900   0.79550   Biso      1.000     O          -0.8081729999999999           
         O4        1.0000    0.13416   0.50000   0.53630   Biso      1.000     O          -0.929164           
         O5        1.0000    0.34361   0.50000   0.95430   Biso      1.000     O          -0.775995           
         O6        1.0000    0.59503   0.23660   0.95370   Biso      1.000     O          -0.885922           
         O7        1.0000    0.10136   0.50000   0.22220   Biso      1.000     O          -0.854324           
         O8        1.0000    0.83441   0.75380   0.68640   Biso      1.000     O          -0.8604870000000001           
         O9        1.0000    0.64222   0.24900   0.79550   Biso      1.000     O          -0.8081729999999999           
         O10       1.0000    0.89864   0.50000   0.77780   Biso      1.000     O          -0.854325           
         O11       1.0000    0.33441   0.74620   0.68640   Biso      1.000     O          -0.8604870000000001           
         O12       1.0000    0.14222   0.25100   0.79550   Biso      1.000     O          -0.8081729999999999           
         O13       1.0000    0.59503   0.76340   0.95370   Biso      1.000     O          -0.885922           
         O14       1.0000    0.83441   0.24620   0.68640   Biso      1.000     O          -0.8604870000000001           
         O15       1.0000    0.64222   0.75100   0.79550   Biso      1.000     O          -0.8081729999999999           
         O16       1.0000    0.90497   0.26340   0.04630   Biso      1.000     O          -0.885921           
         O17       1.0000    0.66559   0.74620   0.31360   Biso      1.000     O          -0.8604870000000001           
         O18       1.0000    0.85778   0.25100   0.20450   Biso      1.000     O          -0.8081729999999999           
         O19       1.0000    0.40497   0.76340   0.04630   Biso      1.000     O          -0.885921           
         O20       1.0000    0.16559   0.24620   0.31360   Biso      1.000     O          -0.8604860000000001           
         O21       1.0000    0.09503   0.26340   0.95370   Biso      1.000     O          -0.885921           
         O22       1.0000    0.35778   0.24900   0.20450   Biso      1.000     O          -0.8081729999999999           
         O23       1.0000    0.40497   0.23660   0.04630   Biso      1.000     O          -0.885921           
         O24       1.0000    0.85778   0.74900   0.20450   Biso      1.000     O          -0.8081729999999999           
         O25       1.0000    0.65639   0.50000   0.04570   Biso      1.000     O          -0.775995           
         O26       1.0000    0.86584   0.50000   0.46370   Biso      1.000     O          -0.929163           
         O27       1.0000    0.63416   0.00000   0.53630   Biso      1.000     O          -0.929163           
         O28       1.0000    0.84361   0.00000   0.95430   Biso      1.000     O          -0.775995           
         O29       1.0000    0.16559   0.75380   0.31360   Biso      1.000     O          -0.8604860000000001           
         O30       1.0000    0.39864   0.00000   0.77780   Biso      1.000     O          -0.854325           
         O31       1.0000    0.60136   0.00000   0.22220   Biso      1.000     O          -0.854324           
         O32       1.0000    0.35778   0.75100   0.20450   Biso      1.000     O          -0.8081729999999999           
         O33       1.0000    0.66559   0.25380   0.31360   Biso      1.000     O          -0.8604870000000001           
         O34       1.0000    0.36584   0.00000   0.46370   Biso      1.000     O          -0.929163           
         O35       1.0000    0.90497   0.73660   0.04630   Biso      1.000     O          -0.885921           
         O36       1.0000    0.15639   0.00000   0.04570   Biso      1.000     O          -0.775995           
         P1        1.0000    0.91614   0.50000   0.95810   Biso      1.000     P          1.523894  
         P2        1.0000    0.67615   0.50000   0.23130   Biso      1.000     P          1.370826  
         P3        1.0000    0.84711   0.50000   0.28780   Biso      1.000     P          1.428884  
         P4        1.0000    0.65289   0.00000   0.71220   Biso      1.000     P          1.428884  
         P5        1.0000    0.08386   0.50000   0.04190   Biso      1.000     P          1.523894  
         P6        1.0000    0.82385   0.00000   0.76870   Biso      1.000     P          1.370826  
         P7        1.0000    0.58386   0.00000   0.04190   Biso      1.000     P          1.523896  
         P8        1.0000    0.32385   0.50000   0.76870   Biso      1.000     P          1.370827  
         P9        1.0000    0.41614   0.00000   0.95810   Biso      1.000     P          1.523894  
         P10       1.0000    0.17615   0.00000   0.23130   Biso      1.000     P          1.370826  
         P11       1.0000    0.34711   0.00000   0.28780   Biso      1.000     P          1.428884  
         P12       1.0000    0.15289   0.50000   0.71220   Biso      1.000     P          1.428884 