
##########################################################################
#               Crystallographic Information Format file
#               Produced by PyCifRW module
#
#  This is a CIF file.  CIF has been adopted by the International
#  Union of Crystallography as the standard for data archiving and
#  transmission.
#
#  For information on this file format, follow the CIF links at
#  http://www.iucr.org
##########################################################################

data_image0

_cell_length_a                          8.9147
_cell_length_b                          12.715
_cell_length_c                          21.226
_cell_angle_alpha                       90.21
_cell_angle_beta                        94.14
_cell_angle_gamma                       91.29
_symmetry_space_group_name_H-M          'P 1'
_symmetry_int_tables_number             1
loop_
  _symmetry_equiv_pos_as_xyz
         'x, y, z' 
loop_
  _atom_site_label
  _atom_site_occupancy
  _atom_site_fract_x
  _atom_site_fract_y
  _atom_site_fract_z
  _atom_site_thermal_displace_type
  _atom_site_B_iso_or_equiv
  _atom_site_type_symbol
  _atom_site_charge
         C1        1.0000    0.78600   0.03100   0.15700   Biso      1.000     C          -0.092763           
         C2        1.0000    0.60100   0.06700   0.31530   Biso      1.000     C          0.693969  
         C3        1.0000    0.52400   0.98500   0.35600   Biso      1.000     C          -0.374609           
         C4        1.0000    0.69900   0.59900   0.71740   Biso      1.000     C          0.743835  
         C5        1.0000    0.57800   0.32000   0.45610   Biso      1.000     C          -0.033649           
         C6        1.0000    0.62200   0.88900   0.36300   Biso      1.000     C          -0.032011000000000005         
         C7        1.0000    0.84100   0.64900   0.14500   Biso      1.000     C          -0.044946           
         C8        1.0000    0.51900   0.78800   0.45400   Biso      1.000     C          0.59634   
         C9        1.0000    0.46900   0.73400   0.34700   Biso      1.000     C          0.565867  
         C10       1.0000    0.38000   0.62700   0.43800   Biso      1.000     C          0.566172  
         C11       1.0000    0.30700   0.58200   0.33200   Biso      1.000     C          -0.060528           
         C12       1.0000    0.73600   0.29200   0.43100   Biso      1.000     C          -0.357381           
         C13       1.0000    0.47600   0.01500   0.64400   Biso      1.000     C          -0.374665           
         C14       1.0000    0.39300   0.48100   0.31400   Biso      1.000     C          -0.390364           
         C15       1.0000    0.77000   0.31800   0.36270   Biso      1.000     C          0.7246090000000001  
         C16       1.0000    0.30100   0.40100   0.28260   Biso      1.000     C          0.743879  
         C17       1.0000    0.42200   0.68000   0.54390   Biso      1.000     C          -0.033525           
         C18       1.0000    0.05800   0.83400   0.78880   Biso      1.000     C          0.6607430000000001  
         C19       1.0000    0.06400   0.94300   0.81800   Biso      1.000     C          -0.140737           
         C20       1.0000    0.26400   0.70800   0.56900   Biso      1.000     C          -0.357451           
         C21       1.0000    0.93600   0.05700   0.18200   Biso      1.000     C          -0.14217  
         C22       1.0000    0.21400   0.96900   0.84300   Biso      1.000     C          -0.092669           
         C23       1.0000    0.71800   0.49500   0.20000   Biso      1.000     C          0.750166  
         C24       1.0000    0.23000   0.68200   0.63730   Biso      1.000     C          0.7246640000000001  
         C25       1.0000    0.22200   0.05800   0.94500   Biso      1.000     C          0.560192  
         C26       1.0000    0.19100   0.15900   0.84900   Biso      1.000     C          0.568052  
         C27       1.0000    0.39900   0.93300   0.68470   Biso      1.000     C          0.693473  
         C28       1.0000    0.57100   0.82100   0.87200   Biso      1.000     C          0.6274770000000001  
         C29       1.0000    0.69300   0.60000   0.16700   Biso      1.000     C          -0.370675           
         C30       1.0000    0.59200   0.82800   0.94300   Biso      1.000     C          -0.147036           
         C31       1.0000    0.37800   0.11100   0.63700   Biso      1.000     C          -0.031796           
         C32       1.0000    0.28200   0.50500   0.80000   Biso      1.000     C          0.7498819999999999  
         C33       1.0000    0.75400   0.85000   0.95500   Biso      1.000     C          -0.106959           
         C34       1.0000    0.48100   0.21200   0.54600   Biso      1.000     C          0.596119  
         C35       1.0000    0.77800   0.94200   0.05500   Biso      1.000     C          0.560359  
         C36       1.0000    0.53100   0.26600   0.65300   Biso      1.000     C          0.565855  
         C37       1.0000    0.30700   0.40000   0.83300   Biso      1.000     C          -0.369637           
         C38       1.0000    0.15900   0.35100   0.85500   Biso      1.000     C          -0.044964           
         C39       1.0000    0.42900   0.17900   0.12800   Biso      1.000     C          0.6251220000000001  
         C40       1.0000    0.69300   0.41800   0.66800   Biso      1.000     C          -0.06041799999999999          
         C41       1.0000    0.40800   0.17200   0.05700   Biso      1.000     C          -0.113625           
         C42       1.0000    0.80100   0.75000   0.05000   Biso      1.000     C          0.552557  
         C43       1.0000    0.80900   0.84100   0.15100   Biso      1.000     C          0.56801   
         C44       1.0000    0.24600   0.15000   0.04500   Biso      1.000     C          -0.11211700000000001          
         C45       1.0000    0.19900   0.25000   0.95000   Biso      1.000     C          0.552077  
         C46       1.0000    0.60700   0.51900   0.68600   Biso      1.000     C          -0.39050799999999997          
         C47       1.0000    0.62000   0.37300   0.56200   Biso      1.000     C          0.566086  
         C48       1.0000    0.94200   0.16600   0.21120   Biso      1.000     C          0.6606810000000001  
         H1        1.0000    0.27990   0.97950   0.80910   Biso      1.000     H          0.136224  
         H2        1.0000    0.25340   0.91210   0.86960   Biso      1.000     H          0.138323  
         H3        1.0000    0.62220   0.59000   0.13000   Biso      1.000     H          0.146117  
         H4        1.0000    0.64900   0.64900   0.19500   Biso      1.000     H          0.15646400000000002           
         H5        1.0000    0.56100   0.39360   0.44720   Biso      1.000     H          0.10489200000000001           
         H6        1.0000    0.81300   0.32680   0.45910   Biso      1.000     H          0.145467  
         H7        1.0000    0.74850   0.21670   0.43700   Biso      1.000     H          0.156633  
         H8        1.0000    0.50130   0.27940   0.43140   Biso      1.000     H          0.11369800000000001           
         H9        1.0000    0.55940   0.54780   0.64730   Biso      1.000     H          0.159998  
         H10       1.0000    0.52750   0.49810   0.71240   Biso      1.000     H          0.159384  
         H11       1.0000    0.78380   0.43970   0.64890   Biso      1.000     H          0.10947   
         H12       1.0000    0.72210   0.38070   0.70660   Biso      1.000     H          0.110128  
         H13       1.0000    0.28950   0.09530   0.60920   Biso      1.000     H          0.10988800000000001           
         H14       1.0000    0.34410   0.13090   0.67820   Biso      1.000     H          0.122073  
         H15       1.0000    0.88480   0.83480   0.63870   Biso      1.000     H          0.40891500000000003           
         H16       1.0000    0.80780   0.04380   0.71270   Biso      1.000     H          0.40932199999999996           
         H17       1.0000    0.57360   0.03500   0.66420   Biso      1.000     H          0.144292  
         H18       1.0000    0.88800   0.56510   0.85480   Biso      1.000     H          0.405566  
         H19       1.0000    0.98210   0.98730   0.81990   Biso      1.000     H          0.15024500000000002           
         H20       1.0000    0.88420   0.60060   0.11640   Biso      1.000     H          0.114317  
         H21       1.0000    0.49000   0.98590   0.60290   Biso      1.000     H          0.161276  
         H22       1.0000    0.51960   0.81950   0.97190   Biso      1.000     H          0.160717  
         H23       1.0000    0.37780   0.41000   0.87000   Biso      1.000     H          0.146514  
         H24       1.0000    0.35100   0.35100   0.80500   Biso      1.000     H          0.1568    
         H25       1.0000    0.11580   0.39940   0.88360   Biso      1.000     H          0.114656  
         H26       1.0000    0.08800   0.34150   0.81820   Biso      1.000     H          0.10750799999999999           
         H27       1.0000    0.48040   0.18050   0.02810   Biso      1.000     H          0.16145199999999998           
         H28       1.0000    0.21840   0.08150   0.06040   Biso      1.000     H          0.143599  
         H29       1.0000    0.18700   0.20290   0.06410   Biso      1.000     H          0.148866  
         H30       1.0000    0.11520   0.16520   0.36130   Biso      1.000     H          0.40855   
         H31       1.0000    0.19220   0.95620   0.28730   Biso      1.000     H          0.409686  
         H32       1.0000    0.11200   0.43490   0.14520   Biso      1.000     H          0.405565  
         H33       1.0000    0.51000   0.01410   0.39710   Biso      1.000     H          0.160907  
         H34       1.0000    0.91200   0.65850   0.18180   Biso      1.000     H          0.107241  
         H35       1.0000    0.65590   0.86910   0.32180   Biso      1.000     H          0.122245  
         H36       1.0000    0.71050   0.90470   0.39080   Biso      1.000     H          0.109677  
         H37       1.0000    0.27790   0.61930   0.29340   Biso      1.000     H          0.110292  
         H38       1.0000    0.42640   0.96500   0.33580   Biso      1.000     H          0.144018  
         H39       1.0000    0.47250   0.50190   0.28760   Biso      1.000     H          0.159497  
         H40       1.0000    0.78160   0.91850   0.93960   Biso      1.000     H          0.13810799999999998           
         H41       1.0000    0.81300   0.79710   0.93590   Biso      1.000     H          0.14414000000000002           
         H42       1.0000    0.21620   0.56030   0.35110   Biso      1.000     H          0.109491  
         H43       1.0000    0.74660   0.08790   0.13040   Biso      1.000     H          0.13689   
         H44       1.0000    0.01790   0.01270   0.18010   Biso      1.000     H          0.14973399999999998           
         H45       1.0000    0.18700   0.67320   0.54090   Biso      1.000     H          0.146233  
         H46       1.0000    0.72010   0.02050   0.19090   Biso      1.000     H          0.135935  
         H47       1.0000    0.43900   0.60640   0.55280   Biso      1.000     H          0.104824  
         H48       1.0000    0.49870   0.72060   0.56860   Biso      1.000     H          0.11318299999999999           
         H49       1.0000    0.44060   0.45220   0.35270   Biso      1.000     H          0.1598    
         H50       1.0000    0.25150   0.78330   0.56300   Biso      1.000     H          0.157063  
         Mn1       1.0000    0.39780   0.72920   0.76260   Biso      1.000     Mn          1.1346479999999999  
         Mn2       1.0000    0.02590   0.63920   0.75310   Biso      1.000     Mn          1.131728  
         Mn3       1.0000    0.72050   0.85490   0.73740   Biso      1.000     Mn          1.211701  
         Mn4       1.0000    0.27950   0.14510   0.26260   Biso      1.000     Mn          1.211317  
         Mn5       1.0000    0.97410   0.36080   0.24690   Biso      1.000     Mn          1.132275  
         Mn6       1.0000    0.60220   0.27080   0.23740   Biso      1.000     Mn          1.135449  
         N1        1.0000    0.60900   0.35000   0.62680   Biso      1.000     N          -0.260459           
         N2        1.0000    0.55700   0.30200   0.52460   Biso      1.000     N          -0.244812           
         N3        1.0000    0.46600   0.20200   0.61120   Biso      1.000     N          -0.24991100000000002          
         N4        1.0000    0.20500   0.06600   0.88040   Biso      1.000     N          -0.239894           
         N5        1.0000    0.77800   0.84700   0.02280   Biso      1.000     N          -0.235323           
         N6        1.0000    0.22200   0.15300   0.97720   Biso      1.000     N          -0.2377   
         N7        1.0000    0.53400   0.79800   0.38880   Biso      1.000     N          -0.249885           
         N8        1.0000    0.79500   0.93400   0.11960   Biso      1.000     N          -0.240761           
         N9        1.0000    0.81600   0.75100   0.11390   Biso      1.000     N          -0.237868           
         N10       1.0000    0.18400   0.24900   0.88610   Biso      1.000     N          -0.23740300000000003          
         N11       1.0000    0.44300   0.69800   0.47540   Biso      1.000     N          -0.24501900000000001          
         N12       1.0000    0.39100   0.65000   0.37320   Biso      1.000     N          -0.260306           
         O1        1.0000    0.48200   0.74900   0.29110   Biso      1.000     O          -0.492519           
         O2        1.0000    0.07100   0.37700   0.14800   Biso      1.000     O          -0.748409           
         O3        1.0000    0.51700   0.12600   0.28110   Biso      1.000     O          -0.58081  
         O4        1.0000    0.73900   0.07500   0.31410   Biso      1.000     O          -0.534618           
         O5        1.0000    0.09600   0.66400   0.65600   Biso      1.000     O          -0.5764779999999999           
         O6        1.0000    0.24000   0.97500   0.25800   Biso      1.000     O          -0.772059           
         O7        1.0000    0.20600   0.15600   0.36250   Biso      1.000     O          -0.770129           
         O8        1.0000    0.83000   0.48800   0.23230   Biso      1.000     O          -0.569783           
         O9        1.0000    0.62500   0.42500   0.19230   Biso      1.000     O          -0.567155           
         O10       1.0000    0.66500   0.86600   0.83550   Biso      1.000     O          -0.557573           
         O11       1.0000    0.46200   0.77100   0.85570   Biso      1.000     O          -0.4659   
         O12       1.0000    0.80400   0.66900   0.01960   Biso      1.000     O          -0.47500600000000004          
         O13       1.0000    0.33800   0.68100   0.67190   Biso      1.000     O          -0.5290159999999999           
         O14       1.0000    0.81500   0.83700   0.20730   Biso      1.000     O          -0.46456499999999995          
         O15       1.0000    0.05300   0.18900   0.24040   Biso      1.000     O          -0.540701           
         O16       1.0000    0.83600   0.23200   0.20420   Biso      1.000     O          -0.572669           
         O17       1.0000    0.31700   0.55000   0.45750   Biso      1.000     O          -0.490505           
         O18       1.0000    0.57000   0.84900   0.48860   Biso      1.000     O          -0.43585799999999997          
         O19       1.0000    0.35900   0.31400   0.26540   Biso      1.000     O          -0.6056   
         O20       1.0000    0.76000   0.02500   0.02970   Biso      1.000     O          -0.484257           
         O21       1.0000    0.76000   0.02500   0.74200   Biso      1.000     O          -0.773101           
         O22       1.0000    0.83300   0.57200   0.72330   Biso      1.000     O          -0.48055299999999995          
         O23       1.0000    0.79400   0.84400   0.63750   Biso      1.000     O          -0.7622770000000001           
         O24       1.0000    0.17000   0.51200   0.76770   Biso      1.000     O          -0.568824           
         O25       1.0000    0.37500   0.57500   0.80770   Biso      1.000     O          -0.5620609999999999           
         O26       1.0000    0.33500   0.13400   0.16450   Biso      1.000     O          -0.554847           
         O27       1.0000    0.53800   0.22900   0.14430   Biso      1.000     O          -0.462796           
         O28       1.0000    0.19600   0.33100   0.98040   Biso      1.000     O          -0.47380600000000006          
         O29       1.0000    0.24000   0.97500   0.97030   Biso      1.000     O          -0.481538           
         O30       1.0000    0.18500   0.16300   0.79270   Biso      1.000     O          -0.46421899999999994          
         O31       1.0000    0.92900   0.62300   0.85200   Biso      1.000     O          -0.742222           
         O32       1.0000    0.94700   0.81100   0.75960   Biso      1.000     O          -0.5402939999999999           
         O33       1.0000    0.68300   0.45000   0.54250   Biso      1.000     O          -0.490325           
         O34       1.0000    0.43000   0.15100   0.51140   Biso      1.000     O          -0.43471800000000005          
         O35       1.0000    0.51800   0.25100   0.70890   Biso      1.000     O          -0.493475           
         O36       1.0000    0.64100   0.68600   0.73460   Biso      1.000     O          -0.605568           
         O37       1.0000    0.66200   0.31900   0.32810   Biso      1.000     O          -0.5317109999999999           
         O38       1.0000    0.90400   0.33600   0.34400   Biso      1.000     O          -0.57708  
         O39       1.0000    0.26100   0.92500   0.68590   Biso      1.000     O          -0.5321560000000001           
         O40       1.0000    0.48300   0.87400   0.71890   Biso      1.000     O          -0.577178           
         O41       1.0000    0.16400   0.76800   0.79580   Biso      1.000     O          -0.570917           
         O42       1.0000    0.16700   0.42800   0.27670   Biso      1.000     O          -0.481368 