
##########################################################################
#               Crystallographic Information Format file
#               Produced by PyCifRW module
#
#  This is a CIF file.  CIF has been adopted by the International
#  Union of Crystallography as the standard for data archiving and
#  transmission.
#
#  For information on this file format, follow the CIF links at
#  http://www.iucr.org
##########################################################################

data_image0

_cell_length_a                          16.2954
_cell_length_b                          8.7619
_cell_length_c                          20.755
_cell_angle_alpha                       90
_cell_angle_beta                        95.316
_cell_angle_gamma                       90
_symmetry_space_group_name_H-M          'P 1'
_symmetry_int_tables_number             1
loop_
  _symmetry_equiv_pos_as_xyz
         'x, y, z' 
loop_
  _atom_site_label
  _atom_site_occupancy
  _atom_site_fract_x
  _atom_site_fract_y
  _atom_site_fract_z
  _atom_site_thermal_displace_type
  _atom_site_B_iso_or_equiv
  _atom_site_type_symbol
  _atom_site_charge
         C1        1.0000    0.64930   0.00990   0.16530   Biso      1.000     C          0.605939  
         C2        1.0000    0.07640   0.49040   0.14270   Biso      1.000     C          -0.163113           
         C3        1.0000    0.87180   0.81200   0.71450   Biso      1.000     C          -0.167122           
         C4        1.0000    0.83590   0.92990   0.67730   Biso      1.000     C          0.144673  
         C5        1.0000    0.88210   0.03810   0.65050   Biso      1.000     C          -0.16558  
         C6        1.0000    0.11880   0.60590   0.17620   Biso      1.000     C          0.141879  
         C7        1.0000    0.96610   0.03780   0.66470   Biso      1.000     C          -0.07616  
         C8        1.0000    0.00410   0.92380   0.70350   Biso      1.000     C          -0.038962           
         C9        1.0000    0.09590   0.92830   0.72020   Biso      1.000     C          0.674018  
         C10       1.0000    0.07700   0.71620   0.20580   Biso      1.000     C          -0.161365           
         C11       1.0000    0.46790   0.07630   0.91360   Biso      1.000     C          -0.089429           
         C12       1.0000    0.50550   0.18570   0.95420   Biso      1.000     C          -0.157801           
         C13       1.0000    0.46900   0.32610   0.96120   Biso      1.000     C          0.172935  
         C14       1.0000    0.99200   0.71160   0.20420   Biso      1.000     C          -0.081291           
         C15       1.0000    0.39090   0.35560   0.92990   Biso      1.000     C          -0.148445           
         C16       1.0000    0.35240   0.24630   0.89010   Biso      1.000     C          -0.095912           
         C17       1.0000    0.39180   0.10740   0.88020   Biso      1.000     C          -0.017205           
         C18       1.0000    0.35070   0.99010   0.83470   Biso      1.000     C          0.605939  
         C19       1.0000    0.00550   0.31430   0.45420   Biso      1.000     C          -0.157804           
         C20       1.0000    0.60820   0.89260   0.11980   Biso      1.000     C          -0.017204           
         C21       1.0000    0.95780   0.81040   0.72770   Biso      1.000     C          -0.07831  
         C22       1.0000    0.35620   0.91410   0.67560   Biso      1.000     C          0.678911  
         C23       1.0000    0.44840   0.90450   0.67250   Biso      1.000     C          -0.03846  
         C24       1.0000    0.48990   0.01640   0.64110   Biso      1.000     C          -0.087476           
         C25       1.0000    0.96900   0.17390   0.46120   Biso      1.000     C          0.172928  
         C26       1.0000    0.89090   0.14440   0.42990   Biso      1.000     C          -0.148443           
         C27       1.0000    0.59590   0.57170   0.22020   Biso      1.000     C          0.674018  
         C28       1.0000    0.85240   0.25370   0.39010   Biso      1.000     C          -0.095912           
         C29       1.0000    0.89180   0.39260   0.38020   Biso      1.000     C          -0.017205           
         C30       1.0000    0.85070   0.50990   0.33470   Biso      1.000     C          0.605939  
         C31       1.0000    0.50410   0.57620   0.20350   Biso      1.000     C          -0.038961           
         C32       1.0000    0.46610   0.46220   0.16470   Biso      1.000     C          -0.076165           
         C33       1.0000    0.38210   0.46190   0.15050   Biso      1.000     C          -0.165586           
         C34       1.0000    0.64760   0.75370   0.10990   Biso      1.000     C          -0.095917           
         C35       1.0000    0.33590   0.57010   0.17730   Biso      1.000     C          0.144671  
         C36       1.0000    0.45780   0.68960   0.22770   Biso      1.000     C          -0.078311           
         C37       1.0000    0.50800   0.21160   0.29580   Biso      1.000     C          -0.081289           
         C38       1.0000    0.49200   0.78840   0.70420   Biso      1.000     C          -0.081283           
         C39       1.0000    0.85620   0.58590   0.17560   Biso      1.000     C          0.67891   
         C40       1.0000    0.57700   0.78380   0.70580   Biso      1.000     C          -0.161381           
         C41       1.0000    0.61880   0.89410   0.67620   Biso      1.000     C          0.141876  
         C42       1.0000    0.94840   0.59550   0.17250   Biso      1.000     C          -0.038456           
         C43       1.0000    0.57640   0.00960   0.64270   Biso      1.000     C          -0.163106           
         C44       1.0000    0.98990   0.48360   0.14110   Biso      1.000     C          -0.087476           
         C45       1.0000    0.37180   0.68800   0.21450   Biso      1.000     C          -0.167116           
         C46       1.0000    0.60910   0.64440   0.07010   Biso      1.000     C          -0.148438           
         C47       1.0000    0.96790   0.42370   0.41360   Biso      1.000     C          -0.089426           
         C48       1.0000    0.53390   0.53780   0.83530   Biso      1.000     C          -0.076167           
         C49       1.0000    0.66410   0.42990   0.82270   Biso      1.000     C          0.144662  
         C50       1.0000    0.51010   0.98360   0.35890   Biso      1.000     C          -0.087475           
         C51       1.0000    0.61790   0.53810   0.84950   Biso      1.000     C          -0.165576           
         C52       1.0000    0.16410   0.07010   0.32270   Biso      1.000     C          0.144663  
         C53       1.0000    0.55160   0.09550   0.32750   Biso      1.000     C          -0.038456           
         C54       1.0000    0.53100   0.67390   0.03880   Biso      1.000     C          0.172925  
         C55       1.0000    0.49590   0.42380   0.79650   Biso      1.000     C          -0.038961           
         C56       1.0000    0.14930   0.49010   0.66530   Biso      1.000     C          0.605939  
         C57       1.0000    0.40410   0.42830   0.77980   Biso      1.000     C          0.674018  
         C58       1.0000    0.03210   0.57630   0.58640   Biso      1.000     C          -0.089429           
         C59       1.0000    0.99450   0.68570   0.54580   Biso      1.000     C          -0.1578   
         C60       1.0000    0.03100   0.82610   0.53880   Biso      1.000     C          0.172934  
         C61       1.0000    0.04220   0.18960   0.27230   Biso      1.000     C          -0.078315           
         C62       1.0000    0.10910   0.85560   0.57010   Biso      1.000     C          -0.148445           
         C63       1.0000    0.64380   0.08590   0.32440   Biso      1.000     C          0.67891   
         C64       1.0000    0.14760   0.74630   0.60990   Biso      1.000     C          -0.095912           
         C65       1.0000    0.12820   0.18800   0.28550   Biso      1.000     C          -0.167115           
         C66       1.0000    0.11790   0.96190   0.34950   Biso      1.000     C          -0.165585           
         C67       1.0000    0.62820   0.31200   0.78550   Biso      1.000     C          -0.167115           
         C68       1.0000    0.42360   0.99040   0.35730   Biso      1.000     C          -0.163114           
         C69       1.0000    0.49450   0.81430   0.04580   Biso      1.000     C          -0.157802           
         C70       1.0000    0.53210   0.92370   0.08640   Biso      1.000     C          -0.089427           
         C71       1.0000    0.42300   0.21620   0.29420   Biso      1.000     C          -0.161376           
         C72       1.0000    0.00800   0.28840   0.79580   Biso      1.000     C          -0.08129  
         C73       1.0000    0.90410   0.07170   0.27980   Biso      1.000     C          0.674018  
         C74       1.0000    0.54220   0.31040   0.77230   Biso      1.000     C          -0.078311           
         C75       1.0000    0.38120   0.10590   0.32380   Biso      1.000     C          0.141889  
         C76       1.0000    0.88120   0.39410   0.82380   Biso      1.000     C          0.141876  
         C77       1.0000    0.92300   0.28380   0.79420   Biso      1.000     C          -0.161365           
         C78       1.0000    0.92360   0.50960   0.85730   Biso      1.000     C          -0.16311  
         C79       1.0000    0.03390   0.96220   0.33530   Biso      1.000     C          -0.076158           
         C80       1.0000    0.01010   0.51640   0.85890   Biso      1.000     C          -0.087476           
         C81       1.0000    0.05160   0.40450   0.82750   Biso      1.000     C          -0.038456           
         C82       1.0000    0.14380   0.41410   0.82440   Biso      1.000     C          0.67891   
         C83       1.0000    0.99590   0.07620   0.29650   Biso      1.000     C          -0.038957           
         C84       1.0000    0.10820   0.60740   0.61980   Biso      1.000     C          -0.017205           
         H1        1.0000    0.39520   0.91710   0.37880   Biso      1.000     H          0.118282  
         H2        1.0000    0.49790   0.38590   0.14820   Biso      1.000     H          0.12131   
         H3        1.0000    0.53910   0.90490   0.38080   Biso      1.000     H          0.121327  
         H4        1.0000    0.99330   0.51750   0.40870   Biso      1.000     H          0.125368  
         H5        1.0000    0.39410   0.29550   0.27270   Biso      1.000     H          0.115449  
         H6        1.0000    0.35700   0.38850   0.12290   Biso      1.000     H          0.127381  
         H7        1.0000    0.63500   0.55160   0.06400   Biso      1.000     H          0.119166  
         H8        1.0000    0.48330   0.76730   0.25270   Biso      1.000     H          0.117066  
         H9        1.0000    0.01670   0.26730   0.24730   Biso      1.000     H          0.117066  
         H10       1.0000    0.16050   0.26440   0.26960   Biso      1.000     H          0.115458  
         H11       1.0000    0.96090   0.40490   0.11920   Biso      1.000     H          0.121327  
         H12       1.0000    0.14300   0.88850   0.37710   Biso      1.000     H          0.127381  
         H13       1.0000    0.10480   0.41710   0.12120   Biso      1.000     H          0.118282  
         H14       1.0000    0.00210   0.88590   0.35180   Biso      1.000     H          0.12131   
         H15       1.0000    0.10590   0.79550   0.22730   Biso      1.000     H          0.115448  
         H16       1.0000    0.96420   0.78760   0.22470   Biso      1.000     H          0.111694  
         H17       1.0000    0.50670   0.01750   0.09130   Biso      1.000     H          0.125368  
         H18       1.0000    0.44400   0.83550   0.02290   Biso      1.000     H          0.124028  
         H19       1.0000    0.69990   0.73520   0.13020   Biso      1.000     H          0.118525  
         H20       1.0000    0.33950   0.76440   0.23040   Biso      1.000     H          0.115458  
         H21       1.0000    0.46420   0.71240   0.72470   Biso      1.000     H          0.111694  
         H22       1.0000    0.53580   0.28760   0.27530   Biso      1.000     H          0.111694  
         H23       1.0000    0.86500   0.05160   0.43600   Biso      1.000     H          0.119167  
         H24       1.0000    0.03580   0.21240   0.77530   Biso      1.000     H          0.111694  
         H25       1.0000    0.89410   0.20450   0.77270   Biso      1.000     H          0.115448  
         H26       1.0000    0.89520   0.58290   0.87880   Biso      1.000     H          0.118281  
         H27       1.0000    0.03910   0.59510   0.88080   Biso      1.000     H          0.121327  
         H28       1.0000    0.51670   0.23270   0.74730   Biso      1.000     H          0.117065  
         H29       1.0000    0.30010   0.26480   0.86980   Biso      1.000     H          0.118525  
         H30       1.0000    0.36500   0.44840   0.93600   Biso      1.000     H          0.119165  
         H31       1.0000    0.55600   0.16450   0.97710   Biso      1.000     H          0.124029  
         H32       1.0000    0.49330   0.98250   0.90870   Biso      1.000     H          0.125368  
         H33       1.0000    0.99790   0.11410   0.64820   Biso      1.000     H          0.121309  
         H34       1.0000    0.85700   0.11150   0.62290   Biso      1.000     H          0.127383  
         H35       1.0000    0.83950   0.73560   0.73040   Biso      1.000     H          0.115455  
         H36       1.0000    0.46090   0.09510   0.61920   Biso      1.000     H          0.121327  
         H37       1.0000    0.98330   0.73270   0.75270   Biso      1.000     H          0.117066  
         H38       1.0000    0.19990   0.76480   0.63020   Biso      1.000     H          0.118525  
         H39       1.0000    0.80010   0.23520   0.36980   Biso      1.000     H          0.118525  
         H40       1.0000    0.60480   0.08290   0.62120   Biso      1.000     H          0.118284  
         H41       1.0000    0.13500   0.94840   0.56400   Biso      1.000     H          0.119165  
         H42       1.0000    0.94400   0.66450   0.52290   Biso      1.000     H          0.124029  
         H43       1.0000    0.05600   0.33550   0.47710   Biso      1.000     H          0.124028  
         H44       1.0000    0.50210   0.61410   0.85180   Biso      1.000     H          0.12131   
         H45       1.0000    0.64300   0.61150   0.87710   Biso      1.000     H          0.127381  
         H46       1.0000    0.66050   0.23560   0.76960   Biso      1.000     H          0.115458  
         H47       1.0000    0.60590   0.70450   0.72730   Biso      1.000     H          0.115446  
         H48       1.0000    0.00670   0.48250   0.59130   Biso      1.000     H          0.125368  
         N1        1.0000    0.78710   0.36140   0.81160   Biso      1.000     N          -0.071506           
         N2        1.0000    0.75720   0.46050   0.83940   Biso      1.000     N          -0.089116           
         N3        1.0000    0.98450   0.93490   0.49890   Biso      1.000     N          -0.128999           
         N4        1.0000    0.51550   0.43490   0.00110   Biso      1.000     N          -0.128999           
         N5        1.0000    0.74280   0.96050   0.66060   Biso      1.000     N          -0.089259           
         N6        1.0000    0.71290   0.86140   0.68840   Biso      1.000     N          -0.071362           
         N7        1.0000    0.28710   0.13860   0.31160   Biso      1.000     N          -0.071506           
         N8        1.0000    0.48450   0.56510   0.99890   Biso      1.000     N          -0.128919           
         N9        1.0000    0.21290   0.63860   0.18840   Biso      1.000     N          -0.071506           
         N10       1.0000    0.24280   0.53950   0.16060   Biso      1.000     N          -0.089116           
         N11       1.0000    0.01550   0.06510   0.50110   Biso      1.000     N          -0.128919           
         N12       1.0000    0.25720   0.03950   0.33940   Biso      1.000     N          -0.089116           
         O1        1.0000    0.12250   0.35630   0.66120   Biso      1.000     O          -0.636616           
         O2        1.0000    0.37140   0.31820   0.74790   Biso      1.000     O          -0.722697           
         O3        1.0000    0.17970   0.53420   0.84210   Biso      1.000     O          -0.705707           
         O4        1.0000    0.17840   0.29780   0.80390   Biso      1.000     O          -0.687419           
         O5        1.0000    0.36510   0.54050   0.79840   Biso      1.000     O          -0.698437           
         O6        1.0000    0.21050   0.52720   0.70418   Biso      1.000     O          -0.747579           
         O7        1.0000    0.78950   0.47280   0.29582   Biso      1.000     O          -0.747579           
         O8        1.0000    0.63490   0.45950   0.20160   Biso      1.000     O          -0.698437           
         O9        1.0000    0.82160   0.70220   0.19610   Biso      1.000     O          -0.687419           
         O10       1.0000    0.82030   0.46580   0.15790   Biso      1.000     O          -0.705707           
         O11       1.0000    0.62860   0.68180   0.25210   Biso      1.000     O          -0.722697           
         O12       1.0000    0.87750   0.64370   0.33880   Biso      1.000     O          -0.636616           
         O13       1.0000    0.62250   0.14370   0.16120   Biso      1.000     O          -0.636616           
         O14       1.0000    0.87140   0.18180   0.24790   Biso      1.000     O          -0.722697           
         O15       1.0000    0.67970   0.96580   0.34210   Biso      1.000     O          -0.705707           
         O16       1.0000    0.67840   0.20220   0.30390   Biso      1.000     O          -0.687419           
         O17       1.0000    0.37750   0.85630   0.83880   Biso      1.000     O          -0.636616           
         O18       1.0000    0.12860   0.81820   0.75210   Biso      1.000     O          -0.722697           
         O19       1.0000    0.32030   0.03420   0.65790   Biso      1.000     O          -0.705707           
         O20       1.0000    0.32160   0.79780   0.69610   Biso      1.000     O          -0.687419           
         O21       1.0000    0.13490   0.04050   0.70160   Biso      1.000     O          -0.698437           
         O22       1.0000    0.28950   0.02720   0.79582   Biso      1.000     O          -0.747579           
         O23       1.0000    0.86510   0.95950   0.29840   Biso      1.000     O          -0.698437           
         O24       1.0000    0.71050   0.97280   0.20418   Biso      1.000     O          -0.747579           
         Sm1       1.0000    0.74185   0.28030   0.21171   Biso      1.000     Sm          2.201264  
         Sm2       1.0000    0.25815   0.71970   0.78829   Biso      1.000     Sm          2.201264  
         Sm3       1.0000    0.75815   0.78030   0.28829   Biso      1.000     Sm          2.201264  
         Sm4       1.0000    0.24185   0.21970   0.71171   Biso      1.000     Sm          2.201264 