
##########################################################################
#               Crystallographic Information Format file
#               Produced by PyCifRW module
#
#  This is a CIF file.  CIF has been adopted by the International
#  Union of Crystallography as the standard for data archiving and
#  transmission.
#
#  For information on this file format, follow the CIF links at
#  http://www.iucr.org
##########################################################################

data_image0

_cell_length_a                          16.2499
_cell_length_b                          8.7451
_cell_length_c                          20.7317
_cell_angle_alpha                       90
_cell_angle_beta                        95.213
_cell_angle_gamma                       90
_symmetry_space_group_name_H-M          'P 1'
_symmetry_int_tables_number             1
loop_
  _symmetry_equiv_pos_as_xyz
         'x, y, z' 
loop_
  _atom_site_label
  _atom_site_occupancy
  _atom_site_fract_x
  _atom_site_fract_y
  _atom_site_fract_z
  _atom_site_thermal_displace_type
  _atom_site_B_iso_or_equiv
  _atom_site_type_symbol
  _atom_site_charge
         C1        1.0000    0.34930   0.99230   0.83470   Biso      1.000     C          0.564214  
         C2        1.0000    0.95910   0.81290   0.72710   Biso      1.000     C          -0.080381           
         C3        1.0000    0.11880   0.60410   0.17660   Biso      1.000     C          0.13859100000000002           
         C4        1.0000    0.87290   0.81430   0.71470   Biso      1.000     C          -0.169997           
         C5        1.0000    0.83690   0.93080   0.67650   Biso      1.000     C          0.14496199999999998           
         C6        1.0000    0.07700   0.71450   0.20650   Biso      1.000     C          -0.163243           
         C7        1.0000    0.88260   0.03810   0.64990   Biso      1.000     C          -0.16817100000000001          
         C8        1.0000    0.96640   0.03780   0.66380   Biso      1.000     C          -0.086875           
         C9        1.0000    0.00510   0.92670   0.70320   Biso      1.000     C          -0.027585000000000002         
         C10       1.0000    0.09710   0.92960   0.71970   Biso      1.000     C          0.600528  
         C11       1.0000    0.35570   0.91460   0.67590   Biso      1.000     C          0.6097020000000001  
         C12       1.0000    0.99210   0.70940   0.20540   Biso      1.000     C          -0.082933           
         C13       1.0000    0.50580   0.18590   0.95370   Biso      1.000     C          -0.156254           
         C14       1.0000    0.46860   0.32570   0.96130   Biso      1.000     C          0.158613  
         C15       1.0000    0.39050   0.35730   0.92980   Biso      1.000     C          -0.147791           
         C16       1.0000    0.65070   0.00770   0.16530   Biso      1.000     C          0.5642119999999999  
         C17       1.0000    0.35270   0.24890   0.89010   Biso      1.000     C          -0.08068099999999999          
         C18       1.0000    0.39020   0.10950   0.88010   Biso      1.000     C          -7.000000000000001e-06        
         C19       1.0000    0.96730   0.42350   0.41380   Biso      1.000     C          -0.097367           
         C20       1.0000    0.60980   0.89050   0.11990   Biso      1.000     C          -5e-06    
         C21       1.0000    0.64730   0.75110   0.10990   Biso      1.000     C          -0.080695           
         C22       1.0000    0.46730   0.07650   0.91380   Biso      1.000     C          -0.097366           
         C23       1.0000    0.60950   0.64270   0.07020   Biso      1.000     C          -0.147785           
         C24       1.0000    0.44800   0.90620   0.67270   Biso      1.000     C          -0.021921           
         C25       1.0000    0.07690   0.48990   0.14270   Biso      1.000     C          -0.162195           
         C26       1.0000    0.50510   0.57330   0.20320   Biso      1.000     C          -0.027599000000000002         
         C27       1.0000    0.00580   0.31410   0.45370   Biso      1.000     C          -0.15625  
         C28       1.0000    0.96860   0.17430   0.46130   Biso      1.000     C          0.158618  
         C29       1.0000    0.46640   0.46220   0.16380   Biso      1.000     C          -0.086895           
         C30       1.0000    0.89050   0.14270   0.42980   Biso      1.000     C          -0.147795           
         C31       1.0000    0.85270   0.25110   0.39010   Biso      1.000     C          -0.080682           
         C32       1.0000    0.89020   0.39050   0.38010   Biso      1.000     C          -8e-06    
         C33       1.0000    0.84930   0.50770   0.33470   Biso      1.000     C          0.564211  
         C34       1.0000    0.38260   0.46190   0.14990   Biso      1.000     C          -0.168181           
         C35       1.0000    0.49040   0.01600   0.64130   Biso      1.000     C          -0.087951           
         C36       1.0000    0.33690   0.56920   0.17650   Biso      1.000     C          0.14499   
         C37       1.0000    0.45910   0.68710   0.22710   Biso      1.000     C          -0.080377           
         C38       1.0000    0.85570   0.58540   0.17590   Biso      1.000     C          0.609696  
         C39       1.0000    0.94800   0.59380   0.17270   Biso      1.000     C          -0.021921           
         C40       1.0000    0.50790   0.20940   0.29460   Biso      1.000     C          -0.082923           
         C41       1.0000    0.49210   0.79060   0.70540   Biso      1.000     C          -0.082927           
         C42       1.0000    0.99040   0.48400   0.14130   Biso      1.000     C          -0.08795900000000001          
         C43       1.0000    0.57700   0.78550   0.70650   Biso      1.000     C          -0.163237           
         C44       1.0000    0.61880   0.89590   0.67660   Biso      1.000     C          0.13860799999999998           
         C45       1.0000    0.57690   0.01010   0.64270   Biso      1.000     C          -0.162195           
         C46       1.0000    0.37290   0.68570   0.21470   Biso      1.000     C          -0.170012           
         C47       1.0000    0.53140   0.67430   0.03870   Biso      1.000     C          0.158617  
         C48       1.0000    0.59710   0.57040   0.21970   Biso      1.000     C          0.600522  
         C49       1.0000    0.49490   0.42670   0.79680   Biso      1.000     C          -0.027596           
         C50       1.0000    0.54090   0.31290   0.77290   Biso      1.000     C          -0.080367           
         C51       1.0000    0.11740   0.96190   0.35010   Biso      1.000     C          -0.16819800000000001          
         C52       1.0000    0.62710   0.31430   0.78530   Biso      1.000     C          -0.169997           
         C53       1.0000    0.66310   0.43080   0.82350   Biso      1.000     C          0.144963  
         C54       1.0000    0.14730   0.74890   0.60990   Biso      1.000     C          -0.080694           
         C55       1.0000    0.61740   0.53810   0.85010   Biso      1.000     C          -0.168168           
         C56       1.0000    0.10980   0.60950   0.61990   Biso      1.000     C          -6e-06    
         C57       1.0000    0.10950   0.85730   0.57020   Biso      1.000     C          -0.147783           
         C58       1.0000    0.53360   0.53780   0.83620   Biso      1.000     C          -0.086872           
         C59       1.0000    0.49420   0.81410   0.04630   Biso      1.000     C          -0.156249           
         C60       1.0000    0.40290   0.42960   0.78030   Biso      1.000     C          0.600525  
         C61       1.0000    0.12710   0.18570   0.28530   Biso      1.000     C          -0.170004           
         C62       1.0000    0.03270   0.57650   0.58620   Biso      1.000     C          -0.097367           
         C63       1.0000    0.04090   0.18710   0.27290   Biso      1.000     C          -0.080381           
         C64       1.0000    0.16310   0.06920   0.32350   Biso      1.000     C          0.144983  
         C65       1.0000    0.99420   0.68590   0.54630   Biso      1.000     C          -0.156252           
         C66       1.0000    0.15070   0.49230   0.66530   Biso      1.000     C          0.564214  
         C67       1.0000    0.05200   0.40620   0.82730   Biso      1.000     C          -0.021919           
         C68       1.0000    0.42300   0.21450   0.29350   Biso      1.000     C          -0.163252           
         C69       1.0000    0.38120   0.10410   0.32340   Biso      1.000     C          0.13859100000000002           
         C70       1.0000    0.53270   0.92350   0.08620   Biso      1.000     C          -0.097366           
         C71       1.0000    0.42310   0.98990   0.35730   Biso      1.000     C          -0.162191           
         C72       1.0000    0.50960   0.98400   0.35870   Biso      1.000     C          -0.08795399999999999          
         C73       1.0000    0.00790   0.29060   0.79460   Biso      1.000     C          -0.082928           
         C74       1.0000    0.14430   0.41460   0.82410   Biso      1.000     C          0.609707  
         C75       1.0000    0.90290   0.07040   0.28030   Biso      1.000     C          0.600521  
         C76       1.0000    0.88120   0.39590   0.82340   Biso      1.000     C          0.138598  
         C77       1.0000    0.55200   0.09380   0.32730   Biso      1.000     C          -0.021922           
         C78       1.0000    0.99490   0.07330   0.29680   Biso      1.000     C          -0.027589999999999996         
         C79       1.0000    0.92310   0.51010   0.85730   Biso      1.000     C          -0.162189           
         C80       1.0000    0.64430   0.08540   0.32410   Biso      1.000     C          0.6097020000000001  
         C81       1.0000    0.03360   0.96220   0.33620   Biso      1.000     C          -0.086871           
         C82       1.0000    0.00960   0.51600   0.85870   Biso      1.000     C          -0.08795  
         C83       1.0000    0.92300   0.28550   0.79350   Biso      1.000     C          -0.163227           
         C84       1.0000    0.03140   0.82570   0.53870   Biso      1.000     C          0.158613  
         Eu1       1.0000    0.75788   0.77926   0.28803   Biso      1.000     Eu          1.3714819999999999  
         Eu2       1.0000    0.24212   0.22074   0.71197   Biso      1.000     Eu          1.371481  
         Eu3       1.0000    0.74212   0.27926   0.21197   Biso      1.000     Eu          1.371477  
         Eu4       1.0000    0.25788   0.72074   0.78803   Biso      1.000     Eu          1.3714870000000001  
         H1        1.0000    0.39400   0.29420   0.27220   Biso      1.000     H          0.115257  
         H2        1.0000    0.44300   0.83460   0.02430   Biso      1.000     H          0.12879000000000002           
         H3        1.0000    0.69930   0.73100   0.13080   Biso      1.000     H          0.12212200000000001           
         H4        1.0000    0.39470   0.91690   0.37920   Biso      1.000     H          0.120621  
         H5        1.0000    0.49800   0.38640   0.14650   Biso      1.000     H          0.11759000000000001           
         H6        1.0000    0.53850   0.90560   0.38100   Biso      1.000     H          0.12276300000000001           
         H7        1.0000    0.50800   0.01820   0.09080   Biso      1.000     H          0.12319200000000001           
         H8        1.0000    0.15940   0.26090   0.26840   Biso      1.000     H          0.115678  
         H9        1.0000    0.96150   0.40560   0.11900   Biso      1.000     H          0.12275799999999999           
         H10       1.0000    0.35740   0.38830   0.12240   Biso      1.000     H          0.125974  
         H11       1.0000    0.00200   0.88640   0.35350   Biso      1.000     H          0.117594  
         H12       1.0000    0.10600   0.79420   0.22780   Biso      1.000     H          0.115248  
         H13       1.0000    0.34060   0.76090   0.23160   Biso      1.000     H          0.11566900000000001           
         H14       1.0000    0.14260   0.88830   0.37760   Biso      1.000     H          0.12598199999999998           
         H15       1.0000    0.48500   0.76540   0.25160   Biso      1.000     H          0.11705   
         H16       1.0000    0.01500   0.26540   0.24840   Biso      1.000     H          0.117057  
         H17       1.0000    0.10530   0.41690   0.12080   Biso      1.000     H          0.12062   
         H18       1.0000    0.96440   0.78420   0.22680   Biso      1.000     H          0.11478699999999999           
         H19       1.0000    0.63510   0.54950   0.06410   Biso      1.000     H          0.128303  
         H20       1.0000    0.46440   0.71580   0.72680   Biso      1.000     H          0.11478900000000002           
         H21       1.0000    0.05700   0.33460   0.47570   Biso      1.000     H          0.12878499999999998           
         H22       1.0000    0.55700   0.16540   0.97570   Biso      1.000     H          0.12878599999999998           
         H23       1.0000    0.36490   0.45050   0.93590   Biso      1.000     H          0.128306  
         H24       1.0000    0.99200   0.51820   0.40920   Biso      1.000     H          0.123189  
         H25       1.0000    0.03560   0.21580   0.77320   Biso      1.000     H          0.11479   
         H26       1.0000    0.89400   0.20580   0.77220   Biso      1.000     H          0.115253  
         H27       1.0000    0.89470   0.58310   0.87920   Biso      1.000     H          0.12061500000000001           
         H28       1.0000    0.03850   0.59440   0.88100   Biso      1.000     H          0.12276300000000001           
         H29       1.0000    0.51500   0.23460   0.74840   Biso      1.000     H          0.11705499999999999           
         H30       1.0000    0.65940   0.23910   0.76840   Biso      1.000     H          0.115673  
         H31       1.0000    0.64260   0.61170   0.87760   Biso      1.000     H          0.125976  
         H32       1.0000    0.50200   0.61360   0.85350   Biso      1.000     H          0.117596  
         H33       1.0000    0.00800   0.48180   0.59080   Biso      1.000     H          0.12319000000000001           
         H34       1.0000    0.94300   0.66540   0.52430   Biso      1.000     H          0.128788  
         H35       1.0000    0.13510   0.95050   0.56410   Biso      1.000     H          0.128303  
         H36       1.0000    0.19930   0.76900   0.63080   Biso      1.000     H          0.12212200000000001           
         H37       1.0000    0.49200   0.98180   0.90920   Biso      1.000     H          0.12319000000000001           
         H38       1.0000    0.99800   0.11360   0.64650   Biso      1.000     H          0.117594  
         H39       1.0000    0.30070   0.26900   0.86920   Biso      1.000     H          0.12212200000000001           
         H40       1.0000    0.84060   0.73910   0.73160   Biso      1.000     H          0.115672  
         H41       1.0000    0.86490   0.04950   0.43590   Biso      1.000     H          0.128302  
         H42       1.0000    0.80070   0.23100   0.36920   Biso      1.000     H          0.12212100000000001           
         H43       1.0000    0.85740   0.11170   0.62240   Biso      1.000     H          0.125976  
         H44       1.0000    0.60530   0.08310   0.62080   Biso      1.000     H          0.120618  
         H45       1.0000    0.60600   0.70580   0.72780   Biso      1.000     H          0.115252  
         H46       1.0000    0.53560   0.28420   0.27320   Biso      1.000     H          0.114791  
         H47       1.0000    0.46150   0.09440   0.61900   Biso      1.000     H          0.122759  
         H48       1.0000    0.98500   0.73460   0.75160   Biso      1.000     H          0.11705499999999999           
         N1        1.0000    0.24480   0.53980   0.16010   Biso      1.000     N          -0.064951           
         N2        1.0000    0.21240   0.63660   0.18780   Biso      1.000     N          -0.049901           
         N3        1.0000    0.48450   0.56550   0.99940   Biso      1.000     N          -0.057012           
         N4        1.0000    0.25520   0.03980   0.33990   Biso      1.000     N          -0.06489  
         N5        1.0000    0.28760   0.13660   0.31220   Biso      1.000     N          -0.049837           
         N6        1.0000    0.71240   0.86340   0.68780   Biso      1.000     N          -0.050004           
         N7        1.0000    0.74480   0.96020   0.66010   Biso      1.000     N          -0.064802           
         N8        1.0000    0.51550   0.43450   0.00060   Biso      1.000     N          -0.056949           
         N9        1.0000    0.01550   0.06550   0.50060   Biso      1.000     N          -0.057017           
         N10       1.0000    0.78760   0.36340   0.81220   Biso      1.000     N          -0.049999           
         N11       1.0000    0.98450   0.93450   0.49940   Biso      1.000     N          -0.056954           
         N12       1.0000    0.75520   0.46020   0.83990   Biso      1.000     N          -0.06479800000000001          
         O1        1.0000    0.17860   0.29890   0.80310   Biso      1.000     O          -0.543856           
         O2        1.0000    0.36420   0.54230   0.79890   Biso      1.000     O          -0.5340229999999999           
         O3        1.0000    0.17950   0.53620   0.84130   Biso      1.000     O          -0.564399           
         O4        1.0000    0.37090   0.31990   0.74820   Biso      1.000     O          -0.5754229999999999           
         O5        1.0000    0.12400   0.35710   0.66150   Biso      1.000     O          -0.535957           
         O6        1.0000    0.21090   0.52970   0.70450   Biso      1.000     O          -0.581448           
         O7        1.0000    0.78910   0.47030   0.29550   Biso      1.000     O          -0.581447           
         O8        1.0000    0.67860   0.20110   0.30310   Biso      1.000     O          -0.543851           
         O9        1.0000    0.82140   0.70110   0.19690   Biso      1.000     O          -0.5438390000000001           
         O10       1.0000    0.67950   0.96380   0.34130   Biso      1.000     O          -0.564396           
         O11       1.0000    0.62910   0.68010   0.25180   Biso      1.000     O          -0.575418           
         O12       1.0000    0.87600   0.64290   0.33850   Biso      1.000     O          -0.53595  
         O13       1.0000    0.62400   0.14290   0.16150   Biso      1.000     O          -0.535953           
         O14       1.0000    0.37600   0.85710   0.83850   Biso      1.000     O          -0.535956           
         O15       1.0000    0.12910   0.81990   0.75180   Biso      1.000     O          -0.5754239999999999           
         O16       1.0000    0.32050   0.03620   0.65870   Biso      1.000     O          -0.5644   
         O17       1.0000    0.32140   0.79890   0.69690   Biso      1.000     O          -0.54385  
         O18       1.0000    0.13580   0.04230   0.70110   Biso      1.000     O          -0.534021           
         O19       1.0000    0.28910   0.02970   0.79550   Biso      1.000     O          -0.581449           
         O20       1.0000    0.87090   0.18010   0.24820   Biso      1.000     O          -0.575416           
         O21       1.0000    0.71090   0.97030   0.20450   Biso      1.000     O          -0.58145  
         O22       1.0000    0.86420   0.95770   0.29890   Biso      1.000     O          -0.5340159999999999           
         O23       1.0000    0.63580   0.45770   0.20110   Biso      1.000     O          -0.534012           
         O24       1.0000    0.82050   0.46380   0.15870   Biso      1.000     O          -0.564387 