
##########################################################################
#               Crystallographic Information Format file
#               Produced by PyCifRW module
#
#  This is a CIF file.  CIF has been adopted by the International
#  Union of Crystallography as the standard for data archiving and
#  transmission.
#
#  For information on this file format, follow the CIF links at
#  http://www.iucr.org
##########################################################################

data_image0

_cell_length_a                          16.2078
_cell_length_b                          8.7082
_cell_length_c                          20.8775
_cell_angle_alpha                       90
_cell_angle_beta                        94.748
_cell_angle_gamma                       90
_symmetry_space_group_name_H-M          'P 1'
_symmetry_int_tables_number             1
loop_
  _symmetry_equiv_pos_as_xyz
         'x, y, z' 
loop_
  _atom_site_label
  _atom_site_occupancy
  _atom_site_fract_x
  _atom_site_fract_y
  _atom_site_fract_z
  _atom_site_thermal_displace_type
  _atom_site_B_iso_or_equiv
  _atom_site_type_symbol
  _atom_site_charge
         C1        1.0000    0.34720   0.99480   0.83460   Biso      1.000     C          0.605313  
         C2        1.0000    0.96140   0.81330   0.72710   Biso      1.000     C          -0.07803600000000001          
         C3        1.0000    0.12030   0.60480   0.17670   Biso      1.000     C          0.139423  
         C4        1.0000    0.87420   0.81250   0.71400   Biso      1.000     C          -0.171981           
         C5        1.0000    0.83820   0.92990   0.67620   Biso      1.000     C          0.142736  
         C6        1.0000    0.07840   0.71140   0.20740   Biso      1.000     C          -0.163201           
         C7        1.0000    0.88350   0.03850   0.64940   Biso      1.000     C          -0.169172           
         C8        1.0000    0.96910   0.03880   0.66290   Biso      1.000     C          -0.077859           
         C9        1.0000    0.00780   0.92600   0.70260   Biso      1.000     C          -0.040608           
         C10       1.0000    0.10010   0.93390   0.71930   Biso      1.000     C          0.680021  
         C11       1.0000    0.35670   0.91730   0.67780   Biso      1.000     C          0.687228  
         C12       1.0000    0.99210   0.70670   0.20710   Biso      1.000     C          -0.082179           
         C13       1.0000    0.50450   0.18240   0.95270   Biso      1.000     C          -0.156653           
         C14       1.0000    0.46780   0.32640   0.96130   Biso      1.000     C          0.171594  
         C15       1.0000    0.38970   0.35900   0.93020   Biso      1.000     C          -0.148672           
         C16       1.0000    0.65280   0.00520   0.16540   Biso      1.000     C          0.605313  
         C17       1.0000    0.35120   0.25090   0.89020   Biso      1.000     C          -0.089451           
         C18       1.0000    0.38900   0.11040   0.87950   Biso      1.000     C          -0.016391           
         C19       1.0000    0.96510   0.42530   0.41280   Biso      1.000     C          -0.087413           
         C20       1.0000    0.61100   0.88960   0.12050   Biso      1.000     C          -0.016391           
         C21       1.0000    0.64880   0.74910   0.10980   Biso      1.000     C          -0.08945499999999999          
         C22       1.0000    0.46510   0.07470   0.91280   Biso      1.000     C          -0.08741  
         C23       1.0000    0.61030   0.64100   0.06980   Biso      1.000     C          -0.14867  
         C24       1.0000    0.44840   0.90730   0.67390   Biso      1.000     C          -0.04013  
         C25       1.0000    0.07860   0.49000   0.14340   Biso      1.000     C          -0.165233           
         C26       1.0000    0.50780   0.57400   0.20260   Biso      1.000     C          -0.040618           
         C27       1.0000    0.00450   0.31760   0.45270   Biso      1.000     C          -0.156648           
         C28       1.0000    0.96780   0.17360   0.46130   Biso      1.000     C          0.1716    
         C29       1.0000    0.46910   0.46120   0.16290   Biso      1.000     C          -0.077856           
         C30       1.0000    0.88970   0.14100   0.43020   Biso      1.000     C          -0.148674           
         C31       1.0000    0.85120   0.24910   0.39020   Biso      1.000     C          -0.089451           
         C32       1.0000    0.88900   0.38960   0.37950   Biso      1.000     C          -0.016391           
         C33       1.0000    0.84720   0.50520   0.33460   Biso      1.000     C          0.605313  
         C34       1.0000    0.38350   0.46150   0.14940   Biso      1.000     C          -0.16919  
         C35       1.0000    0.49020   0.01810   0.64080   Biso      1.000     C          -0.090235           
         C36       1.0000    0.33820   0.57010   0.17620   Biso      1.000     C          0.142765  
         C37       1.0000    0.46140   0.68670   0.22710   Biso      1.000     C          -0.078025           
         C38       1.0000    0.85670   0.58270   0.17780   Biso      1.000     C          0.687228  
         C39       1.0000    0.94840   0.59270   0.17390   Biso      1.000     C          -0.040123           
         C40       1.0000    0.50790   0.20670   0.29290   Biso      1.000     C          -0.082174           
         C41       1.0000    0.49210   0.79330   0.70710   Biso      1.000     C          -0.08217  
         C42       1.0000    0.99020   0.48190   0.14080   Biso      1.000     C          -0.090238           
         C43       1.0000    0.57840   0.78860   0.70740   Biso      1.000     C          -0.163227           
         C44       1.0000    0.62030   0.89520   0.67670   Biso      1.000     C          0.13946   
         C45       1.0000    0.57860   0.01000   0.64340   Biso      1.000     C          -0.165241           
         C46       1.0000    0.37420   0.68750   0.21400   Biso      1.000     C          -0.171989           
         C47       1.0000    0.53220   0.67360   0.03870   Biso      1.000     C          0.1716    
         C48       1.0000    0.60010   0.56610   0.21930   Biso      1.000     C          0.680022  
         C49       1.0000    0.49220   0.42600   0.79740   Biso      1.000     C          -0.040618           
         C50       1.0000    0.53860   0.31330   0.77290   Biso      1.000     C          -0.078026           
         C51       1.0000    0.11650   0.96150   0.35060   Biso      1.000     C          -0.16919  
         C52       1.0000    0.62580   0.31250   0.78600   Biso      1.000     C          -0.171982           
         C53       1.0000    0.66180   0.42990   0.82380   Biso      1.000     C          0.142736  
         C54       1.0000    0.14880   0.75090   0.60980   Biso      1.000     C          -0.08945499999999999          
         C55       1.0000    0.61650   0.53850   0.85060   Biso      1.000     C          -0.169172           
         C56       1.0000    0.11100   0.61040   0.62050   Biso      1.000     C          -0.016390000000000002         
         C57       1.0000    0.11030   0.85900   0.56980   Biso      1.000     C          -0.148668           
         C58       1.0000    0.53090   0.53880   0.83710   Biso      1.000     C          -0.07785800000000001          
         C59       1.0000    0.49550   0.81760   0.04730   Biso      1.000     C          -0.156651           
         C60       1.0000    0.39990   0.43390   0.78070   Biso      1.000     C          0.680022  
         C61       1.0000    0.12580   0.18750   0.28600   Biso      1.000     C          -0.171989           
         C62       1.0000    0.03490   0.57470   0.58720   Biso      1.000     C          -0.087413           
         C63       1.0000    0.03860   0.18670   0.27290   Biso      1.000     C          -0.078034           
         C64       1.0000    0.16180   0.07010   0.32380   Biso      1.000     C          0.142766  
         C65       1.0000    0.99550   0.68240   0.54730   Biso      1.000     C          -0.15665  
         C66       1.0000    0.15280   0.49480   0.66540   Biso      1.000     C          0.605313  
         C67       1.0000    0.05160   0.40730   0.82610   Biso      1.000     C          -0.040129000000000005         
         C68       1.0000    0.42160   0.21140   0.29260   Biso      1.000     C          -0.163231           
         C69       1.0000    0.37970   0.10480   0.32330   Biso      1.000     C          0.139451  
         C70       1.0000    0.53490   0.92530   0.08720   Biso      1.000     C          -0.08741  
         C71       1.0000    0.42140   0.99000   0.35660   Biso      1.000     C          -0.165236           
         C72       1.0000    0.50980   0.98190   0.35920   Biso      1.000     C          -0.090237           
         C73       1.0000    0.00790   0.29330   0.79290   Biso      1.000     C          -0.082174           
         C74       1.0000    0.14330   0.41730   0.82220   Biso      1.000     C          0.687228  
         C75       1.0000    0.89990   0.06610   0.28070   Biso      1.000     C          0.680021  
         C76       1.0000    0.87970   0.39520   0.82330   Biso      1.000     C          0.139432  
         C77       1.0000    0.55160   0.09270   0.32610   Biso      1.000     C          -0.040123           
         C78       1.0000    0.99220   0.07400   0.29740   Biso      1.000     C          -0.040608           
         C79       1.0000    0.92140   0.51000   0.85660   Biso      1.000     C          -0.16523800000000002          
         C80       1.0000    0.64330   0.08270   0.32220   Biso      1.000     C          0.687227  
         C81       1.0000    0.03090   0.96120   0.33710   Biso      1.000     C          -0.07785800000000001          
         C82       1.0000    0.00980   0.51810   0.85920   Biso      1.000     C          -0.090236           
         C83       1.0000    0.92160   0.28860   0.79260   Biso      1.000     C          -0.163197           
         C84       1.0000    0.03220   0.82640   0.53870   Biso      1.000     C          0.171593  
         Dy1       1.0000    0.75728   0.77775   0.28731   Biso      1.000     Dy          2.1344790000000002  
         Dy2       1.0000    0.24272   0.22225   0.71269   Biso      1.000     Dy          2.1344790000000002  
         Dy3       1.0000    0.74272   0.27775   0.21269   Biso      1.000     Dy          2.1344790000000002  
         Dy4       1.0000    0.25728   0.72225   0.78731   Biso      1.000     Dy          2.1344790000000002  
         H1        1.0000    0.39260   0.29010   0.27070   Biso      1.000     H          0.11436500000000001           
         H2        1.0000    0.44430   0.84020   0.02580   Biso      1.000     H          0.12520599999999998           
         H3        1.0000    0.70080   0.72820   0.13010   Biso      1.000     H          0.119226  
         H4        1.0000    0.39220   0.91650   0.37780   Biso      1.000     H          0.11638499999999999           
         H5        1.0000    0.50080   0.38540   0.14540   Biso      1.000     H          0.12007000000000001           
         H6        1.0000    0.53860   0.90480   0.38240   Biso      1.000     H          0.12403900000000001           
         H7        1.0000    0.51100   0.02130   0.09210   Biso      1.000     H          0.12388900000000001           
         H8        1.0000    0.15800   0.26440   0.26980   Biso      1.000     H          0.116694  
         H9        1.0000    0.96140   0.40480   0.11760   Biso      1.000     H          0.12403900000000001           
         H10       1.0000    0.35800   0.38790   0.12220   Biso      1.000     H          0.128434  
         H11       1.0000    0.99920   0.88540   0.35460   Biso      1.000     H          0.12007000000000001           
         H12       1.0000    0.10740   0.79010   0.22930   Biso      1.000     H          0.114363  
         H13       1.0000    0.34200   0.76440   0.23020   Biso      1.000     H          0.116694  
         H14       1.0000    0.14200   0.88790   0.37780   Biso      1.000     H          0.128434  
         H15       1.0000    0.48700   0.76340   0.25260   Biso      1.000     H          0.116244  
         H16       1.0000    0.01300   0.26340   0.24740   Biso      1.000     H          0.116245  
         H17       1.0000    0.10780   0.41650   0.12220   Biso      1.000     H          0.11638499999999999           
         H18       1.0000    0.96440   0.78070   0.22930   Biso      1.000     H          0.11328800000000001           
         H19       1.0000    0.63580   0.54720   0.06340   Biso      1.000     H          0.12210399999999999           
         H20       1.0000    0.46440   0.71930   0.72930   Biso      1.000     H          0.11328800000000001           
         H21       1.0000    0.05570   0.34020   0.47420   Biso      1.000     H          0.12520599999999998           
         H22       1.0000    0.55570   0.15980   0.97420   Biso      1.000     H          0.12520599999999998           
         H23       1.0000    0.36420   0.45280   0.93660   Biso      1.000     H          0.12210499999999999           
         H24       1.0000    0.98900   0.52130   0.40790   Biso      1.000     H          0.12388900000000001           
         H25       1.0000    0.03560   0.21930   0.77070   Biso      1.000     H          0.11328800000000001           
         H26       1.0000    0.89260   0.20990   0.77070   Biso      1.000     H          0.11436500000000001           
         H27       1.0000    0.89220   0.58350   0.87780   Biso      1.000     H          0.11638299999999999           
         H28       1.0000    0.03860   0.59520   0.88240   Biso      1.000     H          0.12403900000000001           
         H29       1.0000    0.51300   0.23660   0.74740   Biso      1.000     H          0.116244  
         H30       1.0000    0.65800   0.23560   0.76980   Biso      1.000     H          0.11669600000000001           
         H31       1.0000    0.64200   0.61210   0.87780   Biso      1.000     H          0.12843   
         H32       1.0000    0.49920   0.61460   0.85460   Biso      1.000     H          0.120071  
         H33       1.0000    0.01100   0.47870   0.59210   Biso      1.000     H          0.12388900000000001           
         H34       1.0000    0.94430   0.65980   0.52580   Biso      1.000     H          0.12520499999999998           
         H35       1.0000    0.13580   0.95280   0.56340   Biso      1.000     H          0.12210499999999999           
         H36       1.0000    0.20080   0.77180   0.63010   Biso      1.000     H          0.119225  
         H37       1.0000    0.48900   0.97870   0.90790   Biso      1.000     H          0.12388900000000001           
         H38       1.0000    0.00080   0.11460   0.64540   Biso      1.000     H          0.120071  
         H39       1.0000    0.29920   0.27180   0.86990   Biso      1.000     H          0.119225  
         H40       1.0000    0.84200   0.73560   0.73020   Biso      1.000     H          0.11669600000000001           
         H41       1.0000    0.86420   0.04720   0.43660   Biso      1.000     H          0.12210399999999999           
         H42       1.0000    0.79920   0.22820   0.36990   Biso      1.000     H          0.119225  
         H43       1.0000    0.85800   0.11210   0.62220   Biso      1.000     H          0.12843   
         H44       1.0000    0.60780   0.08350   0.62220   Biso      1.000     H          0.11638299999999999           
         H45       1.0000    0.60740   0.70990   0.72930   Biso      1.000     H          0.11436700000000001           
         H46       1.0000    0.53560   0.28070   0.27070   Biso      1.000     H          0.11328800000000001           
         H47       1.0000    0.46140   0.09520   0.61760   Biso      1.000     H          0.12403900000000001           
         H48       1.0000    0.98700   0.73660   0.75260   Biso      1.000     H          0.116245  
         N1        1.0000    0.24430   0.54200   0.15890   Biso      1.000     N          -0.07952999999999999          
         N2        1.0000    0.21620   0.63910   0.18910   Biso      1.000     N          -0.065274           
         N3        1.0000    0.48520   0.56580   0.99950   Biso      1.000     N          -0.131043           
         N4        1.0000    0.25570   0.04200   0.34110   Biso      1.000     N          -0.07953099999999999          
         N5        1.0000    0.28380   0.13910   0.31090   Biso      1.000     N          -0.065276           
         N6        1.0000    0.71620   0.86090   0.68910   Biso      1.000     N          -0.065419           
         N7        1.0000    0.74430   0.95800   0.65890   Biso      1.000     N          -0.079386           
         N8        1.0000    0.51480   0.43420   0.00050   Biso      1.000     N          -0.130972           
         N9        1.0000    0.01480   0.06580   0.50050   Biso      1.000     N          -0.131043           
         N10       1.0000    0.78380   0.36090   0.81090   Biso      1.000     N          -0.06541799999999999          
         N11       1.0000    0.98520   0.93420   0.49950   Biso      1.000     N          -0.130972           
         N12       1.0000    0.75570   0.45800   0.84110   Biso      1.000     N          -0.079386           
         O1        1.0000    0.17850   0.30150   0.80100   Biso      1.000     O          -0.681365           
         O2        1.0000    0.36210   0.54730   0.79940   Biso      1.000     O          -0.677564           
         O3        1.0000    0.17930   0.53960   0.83890   Biso      1.000     O          -0.702593           
         O4        1.0000    0.36740   0.32260   0.74880   Biso      1.000     O          -0.7203930000000001           
         O5        1.0000    0.12760   0.35810   0.66270   Biso      1.000     O          -0.632911           
         O6        1.0000    0.21290   0.53550   0.70540   Biso      1.000     O          -0.732902           
         O7        1.0000    0.78710   0.46450   0.29460   Biso      1.000     O          -0.732902           
         O8        1.0000    0.67850   0.19850   0.30100   Biso      1.000     O          -0.681365           
         O9        1.0000    0.82150   0.69850   0.19900   Biso      1.000     O          -0.681365           
         O10       1.0000    0.67930   0.96040   0.33890   Biso      1.000     O          -0.702593           
         O11       1.0000    0.63260   0.67740   0.25120   Biso      1.000     O          -0.7203930000000001           
         O12       1.0000    0.87240   0.64190   0.33730   Biso      1.000     O          -0.632911           
         O13       1.0000    0.62760   0.14190   0.16270   Biso      1.000     O          -0.632912           
         O14       1.0000    0.37240   0.85810   0.83730   Biso      1.000     O          -0.632911           
         O15       1.0000    0.13260   0.82260   0.75120   Biso      1.000     O          -0.7203930000000001           
         O16       1.0000    0.32070   0.03960   0.66110   Biso      1.000     O          -0.702593           
         O17       1.0000    0.32150   0.80150   0.69900   Biso      1.000     O          -0.681365           
         O18       1.0000    0.13790   0.04730   0.70060   Biso      1.000     O          -0.677564           
         O19       1.0000    0.28710   0.03550   0.79460   Biso      1.000     O          -0.732902           
         O20       1.0000    0.86740   0.17740   0.24880   Biso      1.000     O          -0.7203930000000001           
         O21       1.0000    0.71290   0.96450   0.20540   Biso      1.000     O          -0.732901           
         O22       1.0000    0.86210   0.95270   0.29940   Biso      1.000     O          -0.677564           
         O23       1.0000    0.63790   0.45270   0.20060   Biso      1.000     O          -0.677564           
         O24       1.0000    0.82070   0.46040   0.16110   Biso      1.000     O          -0.702593 