
##########################################################################
#               Crystallographic Information Format file
#               Produced by PyCifRW module
#
#  This is a CIF file.  CIF has been adopted by the International
#  Union of Crystallography as the standard for data archiving and
#  transmission.
#
#  For information on this file format, follow the CIF links at
#  http://www.iucr.org
##########################################################################

data_image0

_cell_length_a                          11.385
_cell_length_b                          11.606
_cell_length_c                          19.125
_cell_angle_alpha                       90
_cell_angle_beta                        90
_cell_angle_gamma                       115.684
_symmetry_space_group_name_H-M          'P 1'
_symmetry_int_tables_number             1
loop_
  _symmetry_equiv_pos_as_xyz
         'x, y, z' 
loop_
  _atom_site_label
  _atom_site_occupancy
  _atom_site_fract_x
  _atom_site_fract_y
  _atom_site_fract_z
  _atom_site_thermal_displace_type
  _atom_site_B_iso_or_equiv
  _atom_site_type_symbol
  _atom_site_charge
         C1        1.0000    0.68740   0.08750   0.52910   Biso      1.000     C          -0.321626           
         C2        1.0000    0.56290   0.10940   0.07680   Biso      1.000     C          -0.139494           
         C3        1.0000    0.51930   0.83400   0.92190   Biso      1.000     C          -0.12228800000000001          
         C4        1.0000    0.44160   0.69500   0.58370   Biso      1.000     C          0.5955090000000001  
         C5        1.0000    0.35300   0.70080   0.64160   Biso      1.000     C          -0.013558           
         C6        1.0000    0.36240   0.81530   0.66610   Biso      1.000     C          -0.189058           
         C7        1.0000    0.28050   0.81970   0.72120   Biso      1.000     C          0.075784  
         C8        1.0000    0.55140   0.01780   0.02440   Biso      1.000     C          0.078827  
         C9        1.0000    0.28410   0.93700   0.74720   Biso      1.000     C          -0.14657799999999999          
         C10       1.0000    0.11580   0.82030   0.83080   Biso      1.000     C          -0.014794999999999999         
         C11       1.0000    0.11000   0.70700   0.80650   Biso      1.000     C          -0.183649           
         C12       1.0000    0.19070   0.70340   0.75140   Biso      1.000     C          0.083367  
         C13       1.0000    0.18300   0.58690   0.72470   Biso      1.000     C          -0.143705           
         C14       1.0000    0.26030   0.58580   0.67110   Biso      1.000     C          -0.10455899999999999          
         C15       1.0000    0.81260   0.41250   0.02910   Biso      1.000     C          -0.321625           
         C16       1.0000    0.20380   0.93590   0.80010   Biso      1.000     C          -0.10941500000000001          
         C17       1.0000    0.63860   0.96000   0.02060   Biso      1.000     C          -0.155525           
         C18       1.0000    0.62290   0.87050   0.97080   Biso      1.000     C          -0.01061  
         C19       1.0000    0.70900   0.80140   0.97080   Biso      1.000     C          0.5732510000000001  
         C20       1.0000    0.98070   0.66600   0.42190   Biso      1.000     C          -0.12234600000000001          
         C21       1.0000    0.05840   0.80500   0.08370   Biso      1.000     C          0.59528   
         C22       1.0000    0.14700   0.79920   0.14160   Biso      1.000     C          -0.013364           
         C23       1.0000    0.13760   0.68470   0.16610   Biso      1.000     C          -0.188969           
         C24       1.0000    0.21950   0.68030   0.22120   Biso      1.000     C          0.075792  
         C25       1.0000    0.21590   0.56300   0.24720   Biso      1.000     C          -0.146635           
         C26       1.0000    0.29620   0.56410   0.30010   Biso      1.000     C          -0.109249           
         C27       1.0000    0.38420   0.67970   0.33080   Biso      1.000     C          -0.015646           
         C28       1.0000    0.39000   0.79300   0.30650   Biso      1.000     C          -0.183809           
         C29       1.0000    0.30930   0.79660   0.25140   Biso      1.000     C          0.083317  
         C30       1.0000    0.31700   0.91310   0.22470   Biso      1.000     C          -0.143843           
         C31       1.0000    0.23970   0.91420   0.17110   Biso      1.000     C          -0.104646           
         C32       1.0000    0.18740   0.58750   0.97090   Biso      1.000     C          -0.321625           
         C33       1.0000    0.85100   0.08850   0.44850   Biso      1.000     C          -0.327477           
         C34       1.0000    0.02740   0.82040   0.89010   Biso      1.000     C          0.592655  
         C35       1.0000    0.64900   0.41150   0.94850   Biso      1.000     C          -0.327468           
         C36       1.0000    0.93710   0.39060   0.57680   Biso      1.000     C          -0.13941099999999998          
         C37       1.0000    0.52740   0.32040   0.60990   Biso      1.000     C          0.593076  
         C38       1.0000    0.12290   0.37050   0.52920   Biso      1.000     C          -0.010631999999999999         
         C39       1.0000    0.37710   0.12950   0.02920   Biso      1.000     C          -0.010622           
         C40       1.0000    0.36140   0.04000   0.97940   Biso      1.000     C          -0.15551600000000002          
         C41       1.0000    0.44860   0.98220   0.97560   Biso      1.000     C          0.078822  
         C42       1.0000    0.43710   0.89060   0.92320   Biso      1.000     C          -0.139472           
         C43       1.0000    0.48070   0.16600   0.07810   Biso      1.000     C          -0.122271           
         C44       1.0000    0.55840   0.30500   0.41630   Biso      1.000     C          0.595582  
         C45       1.0000    0.29100   0.19860   0.02920   Biso      1.000     C          0.573244  
         C46       1.0000    0.64700   0.29920   0.35840   Biso      1.000     C          -0.013585           
         C47       1.0000    0.71950   0.18030   0.27880   Biso      1.000     C          0.07578700000000001           
         C48       1.0000    0.71590   0.06300   0.25280   Biso      1.000     C          -0.146509           
         C49       1.0000    0.79620   0.06410   0.19990   Biso      1.000     C          -0.1094   
         C50       1.0000    0.88420   0.17970   0.16920   Biso      1.000     C          -0.014778           
         C51       1.0000    0.89000   0.29300   0.19350   Biso      1.000     C          -0.18365599999999999          
         C52       1.0000    0.80930   0.29660   0.24860   Biso      1.000     C          0.083375  
         C53       1.0000    0.63760   0.18470   0.33390   Biso      1.000     C          -0.18899100000000002          
         C54       1.0000    0.97260   0.17960   0.10990   Biso      1.000     C          0.59265   
         C55       1.0000    0.14900   0.91150   0.55150   Biso      1.000     C          -0.327481           
         C56       1.0000    0.31260   0.91250   0.47090   Biso      1.000     C          -0.321617           
         C57       1.0000    0.13860   0.46000   0.47940   Biso      1.000     C          -0.155428           
         C58       1.0000    0.05140   0.51780   0.47560   Biso      1.000     C          0.078808  
         C59       1.0000    0.06290   0.60940   0.42320   Biso      1.000     C          -0.13940999999999998          
         C60       1.0000    0.01930   0.33400   0.57810   Biso      1.000     C          -0.122314           
         C61       1.0000    0.94160   0.19500   0.91630   Biso      1.000     C          0.595268  
         C62       1.0000    0.85300   0.20080   0.85840   Biso      1.000     C          -0.013332           
         C63       1.0000    0.86240   0.31530   0.83390   Biso      1.000     C          -0.188966           
         C64       1.0000    0.78050   0.31970   0.77880   Biso      1.000     C          0.075804  
         C65       1.0000    0.78410   0.43700   0.75280   Biso      1.000     C          -0.146602           
         C66       1.0000    0.70380   0.43590   0.69990   Biso      1.000     C          -0.109196           
         C67       1.0000    0.61580   0.32030   0.66920   Biso      1.000     C          -0.015663999999999997         
         C68       1.0000    0.61000   0.20700   0.69350   Biso      1.000     C          -0.183754           
         C69       1.0000    0.69070   0.20340   0.74860   Biso      1.000     C          0.08332200000000001           
         C70       1.0000    0.68300   0.08690   0.77530   Biso      1.000     C          -0.143797           
         C71       1.0000    0.76030   0.08580   0.82890   Biso      1.000     C          -0.10462300000000001          
         C72       1.0000    0.20900   0.30140   0.52920   Biso      1.000     C          0.573814  
         C73       1.0000    0.94860   0.48220   0.52440   Biso      1.000     C          0.07883   
         C74       1.0000    0.86140   0.54000   0.52060   Biso      1.000     C          -0.155528           
         C75       1.0000    0.87710   0.62950   0.47080   Biso      1.000     C          -0.010573           
         C76       1.0000    0.35100   0.58850   0.05150   Biso      1.000     C          -0.327457           
         C77       1.0000    0.81700   0.41310   0.27530   Biso      1.000     C          -0.143676           
         C78       1.0000    0.73970   0.41420   0.32890   Biso      1.000     C          -0.104524           
         C79       1.0000    0.47260   0.67960   0.39010   Biso      1.000     C          0.593016  
         C80       1.0000    0.79100   0.69860   0.47080   Biso      1.000     C          0.573752  
         H1        1.0000    0.16520   0.51410   0.06250   Biso      1.000     H          0.258898  
         H2        1.0000    0.76170   0.41020   0.06970   Biso      1.000     H          0.142155  
         H3        1.0000    0.79140   0.32660   0.01380   Biso      1.000     H          0.13691   
         H4        1.0000    0.90370   0.45540   0.04050   Biso      1.000     H          0.144025  
         H5        1.0000    0.25240   0.50810   0.65300   Biso      1.000     H          0.117326  
         H6        1.0000    0.12400   0.51010   0.74410   Biso      1.000     H          0.11841800000000001           
         H7        1.0000    0.05060   0.63010   0.82580   Biso      1.000     H          0.11591900000000001           
         H8        1.0000    0.20700   0.01250   0.81620   Biso      1.000     H          0.127134  
         H9        1.0000    0.34160   0.01470   0.72740   Biso      1.000     H          0.119627  
         H10       1.0000    0.42400   0.89150   0.64620   Biso      1.000     H          0.116906  
         H11       1.0000    0.50960   0.77310   0.88820   Biso      1.000     H          0.122777  
         H12       1.0000    0.62940   0.13300   0.11010   Biso      1.000     H          0.11058699999999999           
         H13       1.0000    0.70810   0.98410   0.05190   Biso      1.000     H          0.12987200000000002           
         H14       1.0000    0.66520   0.01410   0.43750   Biso      1.000     H          0.25901799999999997           
         H15       1.0000    0.41040   0.59300   0.01460   Biso      1.000     H          0.14322000000000001           
         H16       1.0000    0.86590   0.17430   0.43460   Biso      1.000     H          0.136568  
         H17       1.0000    0.86460   0.04480   0.40900   Biso      1.000     H          0.152678  
         H18       1.0000    0.73830   0.08980   0.56970   Biso      1.000     H          0.142176  
         H19       1.0000    0.70860   0.17340   0.51380   Biso      1.000     H          0.136953  
         H20       1.0000    0.59630   0.04460   0.54050   Biso      1.000     H          0.14401   
         H21       1.0000    0.24760   0.99190   0.15300   Biso      1.000     H          0.11732999999999999           
         H22       1.0000    0.37600   0.98990   0.24410   Biso      1.000     H          0.11836600000000001           
         H23       1.0000    0.44940   0.86990   0.32580   Biso      1.000     H          0.11575899999999999           
         H24       1.0000    0.29300   0.48750   0.31620   Biso      1.000     H          0.126978  
         H25       1.0000    0.15840   0.48530   0.22740   Biso      1.000     H          0.119593  
         H26       1.0000    0.07600   0.60850   0.14620   Biso      1.000     H          0.116959  
         H27       1.0000    0.99040   0.72690   0.38820   Biso      1.000     H          0.122823  
         H28       1.0000    0.87060   0.36700   0.61010   Biso      1.000     H          0.110674  
         H29       1.0000    0.79190   0.51590   0.55190   Biso      1.000     H          0.12995   
         H30       1.0000    0.63410   0.32570   0.93460   Biso      1.000     H          0.136452  
         H31       1.0000    0.91040   0.09300   0.48540   Biso      1.000     H          0.143204  
         H32       1.0000    0.63540   0.45520   0.90900   Biso      1.000     H          0.152634  
         H33       1.0000    0.20810   0.48410   0.44810   Biso      1.000     H          0.129959  
         H34       1.0000    0.36590   0.67430   0.06540   Biso      1.000     H          0.13644   
         H35       1.0000    0.36460   0.54480   0.09100   Biso      1.000     H          0.152607  
         H36       1.0000    0.23830   0.58980   0.93030   Biso      1.000     H          0.14213199999999998           
         H37       1.0000    0.20860   0.67340   0.98620   Biso      1.000     H          0.136902  
         H38       1.0000    0.09630   0.54460   0.95950   Biso      1.000     H          0.144007  
         H39       1.0000    0.74760   0.49190   0.34700   Biso      1.000     H          0.11733800000000001           
         H40       1.0000    0.87600   0.48990   0.25590   Biso      1.000     H          0.11843599999999999           
         H41       1.0000    0.94940   0.36990   0.17420   Biso      1.000     H          0.115927  
         H42       1.0000    0.79300   0.98750   0.18380   Biso      1.000     H          0.12712400000000001           
         H43       1.0000    0.65840   0.98530   0.27260   Biso      1.000     H          0.11963399999999999           
         H44       1.0000    0.57600   0.10850   0.35380   Biso      1.000     H          0.116927  
         H45       1.0000    0.49040   0.22690   0.11180   Biso      1.000     H          0.12278599999999999           
         H46       1.0000    0.83480   0.48590   0.93750   Biso      1.000     H          0.25890100000000005           
         H47       1.0000    0.29190   0.01590   0.94810   Biso      1.000     H          0.129867  
         H48       1.0000    0.37060   0.86700   0.88990   Biso      1.000     H          0.11058599999999999           
         H49       1.0000    0.08960   0.90700   0.51460   Biso      1.000     H          0.143286  
         H50       1.0000    0.12940   0.63300   0.38990   Biso      1.000     H          0.110678  
         H51       1.0000    0.00960   0.27310   0.61180   Biso      1.000     H          0.122842  
         H52       1.0000    0.92400   0.39150   0.85380   Biso      1.000     H          0.11697   
         H53       1.0000    0.84160   0.51470   0.77260   Biso      1.000     H          0.119619  
         H54       1.0000    0.33480   0.98590   0.56250   Biso      1.000     H          0.25909899999999997           
         H55       1.0000    0.55060   0.13010   0.67420   Biso      1.000     H          0.11578   
         H56       1.0000    0.70700   0.51250   0.68380   Biso      1.000     H          0.12697999999999998           
         H57       1.0000    0.75240   0.00810   0.84700   Biso      1.000     H          0.11733900000000001           
         H58       1.0000    0.40370   0.95540   0.45950   Biso      1.000     H          0.144087  
         H59       1.0000    0.29140   0.82660   0.48620   Biso      1.000     H          0.137062  
         H60       1.0000    0.26170   0.91020   0.43030   Biso      1.000     H          0.142246  
         H61       1.0000    0.13540   0.95520   0.59100   Biso      1.000     H          0.152751  
         H62       1.0000    0.13410   0.82570   0.56540   Biso      1.000     H          0.136687  
         H63       1.0000    0.62400   0.01010   0.75590   Biso      1.000     H          0.11836500000000001           
         H64       1.0000    0.58960   0.40700   0.98540   Biso      1.000     H          0.143243  
         N1        1.0000    0.71630   0.01680   0.47307   Biso      1.000     N          -0.24178899999999998          
         N2        1.0000    0.78370   0.48320   0.97307   Biso      1.000     N          -0.241458           
         N3        1.0000    0.28370   0.98320   0.52693   Biso      1.000     N          -0.24180500000000002          
         N4        1.0000    0.21630   0.51680   0.02693   Biso      1.000     N          -0.241456           
         Ni1       1.0000    0.67351   0.82916   0.49506   Biso      1.000     Ni          0.804086  
         Ni2       1.0000    0.00000   0.00000   0.00000   Biso      1.000     Ni          1.046748  
         Ni3       1.0000    0.50000   0.50000   0.50000   Biso      1.000     Ni          1.0485200000000001  
         Ni4       1.0000    0.17351   0.32916   0.00494   Biso      1.000     Ni          0.8005720000000001  
         Ni5       1.0000    0.32649   0.17084   0.50494   Biso      1.000     Ni          0.805049  
         Ni6       1.0000    0.82649   0.67084   0.99506   Biso      1.000     Ni          0.80055   
         O1        1.0000    0.32740   0.30380   0.05966   Biso      1.000     O          -0.5151439999999999           
         O2        1.0000    0.18570   0.15490   0.99300   Biso      1.000     O          -0.574021           
         O3        1.0000    0.05910   0.28530   0.09085   Biso      1.000     O          -0.535216           
         O4        1.0000    0.94800   0.07070   0.08508   Biso      1.000     O          -0.5542729999999999           
         O5        1.0000    0.92790   0.08540   0.93252   Biso      1.000     O          -0.548854           
         O6        1.0000    0.02310   0.30080   0.94077   Biso      1.000     O          -0.565487           
         O7        1.0000    0.17260   0.19620   0.55966   Biso      1.000     O          -0.515948           
         O8        1.0000    0.31430   0.34510   0.49300   Biso      1.000     O          -0.574152           
         O9        1.0000    0.44090   0.21470   0.59085   Biso      1.000     O          -0.535266           
         O10       1.0000    0.55200   0.42930   0.58508   Biso      1.000     O          -0.55598  
         O11       1.0000    0.42790   0.58540   0.56748   Biso      1.000     O          -0.549461           
         O12       1.0000    0.67260   0.69620   0.94034   Biso      1.000     O          -0.5151399999999999           
         O13       1.0000    0.47690   0.19920   0.44077   Biso      1.000     O          -0.566045           
         O14       1.0000    0.81430   0.84510   0.00700   Biso      1.000     O          -0.5740069999999999           
         O15       1.0000    0.94090   0.71470   0.90915   Biso      1.000     O          -0.535225           
         O16       1.0000    0.05200   0.92930   0.91492   Biso      1.000     O          -0.55428  
         O17       1.0000    0.07210   0.91460   0.06748   Biso      1.000     O          -0.548859           
         O18       1.0000    0.97690   0.69920   0.05923   Biso      1.000     O          -0.565491           
         O19       1.0000    0.82740   0.80380   0.44034   Biso      1.000     O          -0.516062           
         O20       1.0000    0.68570   0.65490   0.50700   Biso      1.000     O          -0.5742109999999999           
         O21       1.0000    0.55910   0.78530   0.40915   Biso      1.000     O          -0.535443           
         O22       1.0000    0.44800   0.57070   0.41492   Biso      1.000     O          -0.5561119999999999           
         O23       1.0000    0.52310   0.80080   0.55923   Biso      1.000     O          -0.566074           
         O24       1.0000    0.57210   0.41460   0.43252   Biso      1.000     O          -0.549358 