
##########################################################################
#               Crystallographic Information Format file
#               Produced by PyCifRW module
#
#  This is a CIF file.  CIF has been adopted by the International
#  Union of Crystallography as the standard for data archiving and
#  transmission.
#
#  For information on this file format, follow the CIF links at
#  http://www.iucr.org
##########################################################################

data_image0

_cell_length_a                          7.9911
_cell_length_b                          10.1983
_cell_length_c                          12.1081
_cell_angle_alpha                       65.0938
_cell_angle_beta                        70.7319
_cell_angle_gamma                       90
_symmetry_space_group_name_H-M          'P 1'
_symmetry_int_tables_number             1
loop_
  _symmetry_equiv_pos_as_xyz
         'x, y, z' 
loop_
  _atom_site_label
  _atom_site_occupancy
  _atom_site_fract_x
  _atom_site_fract_y
  _atom_site_fract_z
  _atom_site_thermal_displace_type
  _atom_site_B_iso_or_equiv
  _atom_site_type_symbol
  _atom_site_charge
         C1        1.0000    0.83260   0.10046   0.76880   Biso      1.000     C          0.157726  
         C2        1.0000    0.10140   0.39954   0.23120   Biso      1.000     C          0.158138  
         C3        1.0000    0.11079   0.49651   0.35042   Biso      1.000     C          0.36612   
         C4        1.0000    0.66740   0.36926   0.23120   Biso      1.000     C          0.159133  
         C5        1.0000    0.53879   0.15307   0.35042   Biso      1.000     C          0.365334  
         C6        1.0000    0.39860   0.13074   0.76880   Biso      1.000     C          0.15901   
         C7        1.0000    0.38921   0.34693   0.64958   Biso      1.000     C          0.364724  
         C8        1.0000    0.96121   0.00349   0.64958   Biso      1.000     C          0.365436  
         C9        1.0000    0.89860   0.60046   0.76880   Biso      1.000     C          0.158138  
         C10       1.0000    0.88921   0.50349   0.64958   Biso      1.000     C          0.366125  
         C11       1.0000    0.33260   0.63074   0.76880   Biso      1.000     C          0.159133  
         C12       1.0000    0.46121   0.84693   0.64958   Biso      1.000     C          0.36533   
         C13       1.0000    0.03879   0.99651   0.35042   Biso      1.000     C          0.365431  
         C14       1.0000    0.16740   0.89954   0.23120   Biso      1.000     C          0.157725  
         C15       1.0000    0.61079   0.65307   0.35042   Biso      1.000     C          0.36472   
         C16       1.0000    0.60140   0.86926   0.23120   Biso      1.000     C          0.159011  
         Cd1       1.0000    0.25000   0.75000   0.50000   Biso      1.000     Cd          0.68925   
         Cd2       1.0000    0.50000   0.50000   0.00000   Biso      1.000     Cd          0.851059  
         Cd3       1.0000    0.75000   0.25000   0.50000   Biso      1.000     Cd          0.689245  
         Cd4       1.0000    0.00000   0.00000   0.00000   Biso      1.000     Cd          0.85115   
         H1        1.0000    0.06550   0.34070   0.19900   Biso      1.000     H          0.092103  
         H2        1.0000    0.23550   0.84070   0.19900   Biso      1.000     H          0.092352  
         H3        1.0000    0.56550   0.96030   0.19900   Biso      1.000     H          0.092103  
         H4        1.0000    0.73550   0.46030   0.19900   Biso      1.000     H          0.092168  
         H5        1.0000    0.93450   0.65930   0.80100   Biso      1.000     H          0.092103  
         H6        1.0000    0.76450   0.15930   0.80100   Biso      1.000     H          0.092352  
         H7        1.0000    0.43450   0.03970   0.80100   Biso      1.000     H          0.092103  
         H8        1.0000    0.26450   0.53970   0.80100   Biso      1.000     H          0.092168  
         N1        1.0000    0.00515   0.93912   0.75450   Biso      1.000     N          -0.2834   
         N2        1.0000    0.24035   0.30638   0.75450   Biso      1.000     N          -0.283395           
         N3        1.0000    0.85371   0.10478   0.65318   Biso      1.000     N          -0.36276  
         N4        1.0000    0.02664   0.96429   0.54672   Biso      1.000     N          -0.131301           
         N5        1.0000    0.24842   0.16349   0.83276   Biso      1.000     N          -0.222911           
         N6        1.0000    0.49311   0.24204   0.65318   Biso      1.000     N          -0.363699           
         N7        1.0000    0.25158   0.49625   0.16724   Biso      1.000     N          -0.222897           
         N8        1.0000    0.58118   0.33651   0.16724   Biso      1.000     N          -0.222743           
         N9        1.0000    0.49485   0.19362   0.24550   Biso      1.000     N          -0.284116           
         N10       1.0000    0.64629   0.25796   0.34682   Biso      1.000     N          -0.363919           
         N11       1.0000    0.47336   0.01101   0.45328   Biso      1.000     N          -0.131082           
         N12       1.0000    0.25965   0.56088   0.24550   Biso      1.000     N          -0.284277           
         N13       1.0000    0.91882   0.00375   0.83276   Biso      1.000     N          -0.222989           
         N14       1.0000    0.42664   0.48899   0.54672   Biso      1.000     N          -0.130954           
         N15       1.0000    0.92664   0.46429   0.54672   Biso      1.000     N          -0.131676           
         N16       1.0000    0.99485   0.06088   0.24550   Biso      1.000     N          -0.283401           
         N17       1.0000    0.74035   0.43912   0.75450   Biso      1.000     N          -0.284281           
         N18       1.0000    0.74842   0.50375   0.83276   Biso      1.000     N          -0.222891           
         N19       1.0000    0.52664   0.98899   0.54672   Biso      1.000     N          -0.131032           
         N20       1.0000    0.35371   0.74204   0.65318   Biso      1.000     N          -0.363918           
         N21       1.0000    0.50515   0.80638   0.75450   Biso      1.000     N          -0.284123           
         N22       1.0000    0.41882   0.66349   0.83276   Biso      1.000     N          -0.222737           
         N23       1.0000    0.57336   0.51101   0.45328   Biso      1.000     N          -0.130907           
         N24       1.0000    0.50689   0.75796   0.34682   Biso      1.000     N          -0.363698           
         N25       1.0000    0.75965   0.69362   0.24550   Biso      1.000     N          -0.283396           
         N26       1.0000    0.75158   0.83651   0.16724   Biso      1.000     N          -0.222911           
         N27       1.0000    0.97336   0.03571   0.45328   Biso      1.000     N          -0.131247           
         N28       1.0000    0.14629   0.89522   0.34682   Biso      1.000     N          -0.36276  
         N29       1.0000    0.00689   0.39522   0.34682   Biso      1.000     N          -0.362677           
         N30       1.0000    0.08118   0.99625   0.16724   Biso      1.000     N          -0.222989           
         N31       1.0000    0.99311   0.60478   0.65318   Biso      1.000     N          -0.362678           
         N32       1.0000    0.07336   0.53571   0.45328   Biso      1.000     N          -0.131626 