
##########################################################################
#               Crystallographic Information Format file
#               Produced by PyCifRW module
#
#  This is a CIF file.  CIF has been adopted by the International
#  Union of Crystallography as the standard for data archiving and
#  transmission.
#
#  For information on this file format, follow the CIF links at
#  http://www.iucr.org
##########################################################################

data_image0

_cell_length_a                          12.4209
_cell_length_b                          12.4471
_cell_length_c                          15.1155
_cell_angle_alpha                       90
_cell_angle_beta                        90
_cell_angle_gamma                       90
_symmetry_space_group_name_H-M          'P 1'
_symmetry_int_tables_number             1
loop_
  _symmetry_equiv_pos_as_xyz
         'x, y, z' 
loop_
  _atom_site_label
  _atom_site_occupancy
  _atom_site_fract_x
  _atom_site_fract_y
  _atom_site_fract_z
  _atom_site_thermal_displace_type
  _atom_site_B_iso_or_equiv
  _atom_site_type_symbol
  _atom_site_charge
         C1        1.0000    0.96396   0.85030   0.55015   Biso      1.000     C          0.074164  
         C2        1.0000    0.05091   0.33677   0.15825   Biso      1.000     C          0.075568  
         C3        1.0000    0.56282   0.64870   0.14973   Biso      1.000     C          -0.319698           
         C4        1.0000    0.53604   0.64970   0.05015   Biso      1.000     C          0.074164  
         C5        1.0000    0.41383   0.64920   0.03762   Biso      1.000     C          -0.324782           
         C6        1.0000    0.18136   0.83648   0.07004   Biso      1.000     C          0.070489  
         C7        1.0000    0.55091   0.83677   0.34175   Biso      1.000     C          0.075566  
         C8        1.0000    0.06282   0.35130   0.35027   Biso      1.000     C          -0.319698           
         C9        1.0000    0.03604   0.35030   0.44985   Biso      1.000     C          0.074164  
         C10       1.0000    0.91383   0.35080   0.46238   Biso      1.000     C          -0.324782           
         C11       1.0000    0.68136   0.33648   0.42996   Biso      1.000     C          0.070489  
         C12       1.0000    0.68136   0.16352   0.42996   Biso      1.000     C          0.070487  
         C13       1.0000    0.43718   0.14870   0.85027   Biso      1.000     C          -0.319698           
         C14       1.0000    0.46396   0.14970   0.94985   Biso      1.000     C          0.074164  
         C15       1.0000    0.58617   0.14920   0.96238   Biso      1.000     C          -0.324782           
         C16       1.0000    0.81864   0.33648   0.92996   Biso      1.000     C          0.070486  
         C17       1.0000    0.44909   0.33677   0.65825   Biso      1.000     C          0.075566  
         C18       1.0000    0.93718   0.85130   0.64973   Biso      1.000     C          -0.319698           
         C19       1.0000    0.01450   0.25000   0.30823   Biso      1.000     C          0.275958  
         C20       1.0000    0.08617   0.85080   0.53762   Biso      1.000     C          -0.324782           
         C21       1.0000    0.31864   0.66352   0.57004   Biso      1.000     C          0.070486  
         C22       1.0000    0.05091   0.16323   0.15825   Biso      1.000     C          0.075566  
         C23       1.0000    0.91383   0.14920   0.46238   Biso      1.000     C          -0.324782           
         C24       1.0000    0.03604   0.14970   0.44985   Biso      1.000     C          0.074164  
         C25       1.0000    0.06282   0.14870   0.35027   Biso      1.000     C          -0.319698           
         C26       1.0000    0.60790   0.25000   0.81950   Biso      1.000     C          -0.369417           
         C27       1.0000    0.48550   0.25000   0.80823   Biso      1.000     C          0.275958  
         C28       1.0000    0.91520   0.75000   0.50740   Biso      1.000     C          -0.277321           
         C29       1.0000    0.13350   0.75000   0.58120   Biso      1.000     C          0.272756  
         C30       1.0000    0.10790   0.75000   0.68050   Biso      1.000     C          -0.369417           
         C31       1.0000    0.98550   0.75000   0.69177   Biso      1.000     C          0.275958  
         C32       1.0000    0.43718   0.35130   0.85027   Biso      1.000     C          -0.319698           
         C33       1.0000    0.46396   0.35030   0.94985   Biso      1.000     C          0.074164  
         C34       1.0000    0.58617   0.35080   0.96238   Biso      1.000     C          -0.324782           
         C35       1.0000    0.81864   0.16352   0.92996   Biso      1.000     C          0.070489  
         C36       1.0000    0.44909   0.16323   0.65825   Biso      1.000     C          0.075568  
         C37       1.0000    0.93718   0.64870   0.64973   Biso      1.000     C          -0.319698           
         C38       1.0000    0.96396   0.64970   0.55015   Biso      1.000     C          0.074164  
         C39       1.0000    0.08617   0.64920   0.53762   Biso      1.000     C          -0.324782           
         C40       1.0000    0.31864   0.83648   0.57004   Biso      1.000     C          0.070489  
         C41       1.0000    0.94909   0.83677   0.84175   Biso      1.000     C          0.075568  
         C42       1.0000    0.56282   0.85130   0.14973   Biso      1.000     C          -0.319698           
         C43       1.0000    0.53604   0.85030   0.05015   Biso      1.000     C          0.074164  
         C44       1.0000    0.41383   0.85080   0.03762   Biso      1.000     C          -0.324782           
         C45       1.0000    0.18136   0.66352   0.07004   Biso      1.000     C          0.070487  
         C46       1.0000    0.55091   0.66323   0.34175   Biso      1.000     C          0.075568  
         C47       1.0000    0.94909   0.66323   0.84175   Biso      1.000     C          0.075566  
         C48       1.0000    0.63350   0.25000   0.91880   Biso      1.000     C          0.272756  
         C49       1.0000    0.41520   0.25000   0.99260   Biso      1.000     C          -0.277321           
         C50       1.0000    0.58480   0.75000   0.00740   Biso      1.000     C          -0.277321           
         C51       1.0000    0.36650   0.75000   0.08120   Biso      1.000     C          0.272756  
         C52       1.0000    0.39210   0.75000   0.18050   Biso      1.000     C          -0.369417           
         C53       1.0000    0.51450   0.75000   0.19177   Biso      1.000     C          0.275958  
         C54       1.0000    0.08480   0.25000   0.49260   Biso      1.000     C          -0.277321           
         C55       1.0000    0.86650   0.25000   0.41880   Biso      1.000     C          0.272756  
         C56       1.0000    0.89210   0.25000   0.31950   Biso      1.000     C          -0.369417           
         H1        1.0000    0.20450   0.59160   0.07060   Biso      1.000     H          0.092438  
         H2        1.0000    0.70450   0.09160   0.42940   Biso      1.000     H          0.092438  
         H3        1.0000    0.86140   0.18700   0.29170   Biso      1.000     H          0.127727  
         H4        1.0000    0.88290   0.41530   0.43520   Biso      1.000     H          0.11333   
         H5        1.0000    0.89630   0.35150   0.52560   Biso      1.000     H          0.122975  
         H6        1.0000    0.06700   0.41510   0.47800   Biso      1.000     H          0.06294   
         H7        1.0000    0.03240   0.41560   0.32240   Biso      1.000     H          0.112103  
         H8        1.0000    0.36140   0.81300   0.20830   Biso      1.000     H          0.127727  
         H9        1.0000    0.54670   0.90870   0.32300   Biso      1.000     H          0.08733   
         H10       1.0000    0.20450   0.90840   0.07060   Biso      1.000     H          0.092438  
         H11       1.0000    0.04670   0.09130   0.17700   Biso      1.000     H          0.08733   
         H12       1.0000    0.38290   0.58470   0.06480   Biso      1.000     H          0.11333   
         H13       1.0000    0.39630   0.64850   0.97440   Biso      1.000     H          0.122975  
         H14       1.0000    0.14100   0.35220   0.34170   Biso      1.000     H          0.112252  
         H15       1.0000    0.35900   0.14780   0.84170   Biso      1.000     H          0.112252  
         H16       1.0000    0.61710   0.08470   0.93520   Biso      1.000     H          0.11333   
         H17       1.0000    0.43300   0.08490   0.97800   Biso      1.000     H          0.06294   
         H18       1.0000    0.60370   0.14850   0.02560   Biso      1.000     H          0.122975  
         H19       1.0000    0.56700   0.58490   0.02200   Biso      1.000     H          0.06294   
         H20       1.0000    0.63860   0.31300   0.79170   Biso      1.000     H          0.127727  
         H21       1.0000    0.79550   0.40840   0.92940   Biso      1.000     H          0.092438  
         H22       1.0000    0.45330   0.40870   0.67700   Biso      1.000     H          0.08733   
         H23       1.0000    0.85900   0.85220   0.65830   Biso      1.000     H          0.112252  
         H24       1.0000    0.96760   0.91560   0.67760   Biso      1.000     H          0.112103  
         H25       1.0000    0.93300   0.91510   0.52200   Biso      1.000     H          0.06294   
         H26       1.0000    0.10370   0.85150   0.47440   Biso      1.000     H          0.122976  
         H27       1.0000    0.11710   0.91530   0.56480   Biso      1.000     H          0.11333   
         H28       1.0000    0.13860   0.68700   0.70830   Biso      1.000     H          0.127727  
         H29       1.0000    0.29550   0.59160   0.57060   Biso      1.000     H          0.092438  
         H30       1.0000    0.95330   0.59130   0.82300   Biso      1.000     H          0.08733   
         H31       1.0000    0.46760   0.08440   0.82240   Biso      1.000     H          0.112103  
         H32       1.0000    0.54670   0.59130   0.32300   Biso      1.000     H          0.08733   
         H33       1.0000    0.53240   0.58440   0.17760   Biso      1.000     H          0.112103  
         H34       1.0000    0.04670   0.40870   0.17700   Biso      1.000     H          0.08733   
         H35       1.0000    0.79550   0.09160   0.92940   Biso      1.000     H          0.092438  
         H36       1.0000    0.45330   0.09130   0.67700   Biso      1.000     H          0.08733   
         H37       1.0000    0.14100   0.14780   0.34170   Biso      1.000     H          0.112252  
         H38       1.0000    0.96760   0.58440   0.67760   Biso      1.000     H          0.112104  
         H39       1.0000    0.93300   0.58490   0.52200   Biso      1.000     H          0.06294   
         H40       1.0000    0.10370   0.64850   0.47440   Biso      1.000     H          0.122976  
         H41       1.0000    0.11710   0.58470   0.56480   Biso      1.000     H          0.11333   
         H42       1.0000    0.63860   0.18700   0.79170   Biso      1.000     H          0.127727  
         H43       1.0000    0.13860   0.81300   0.70830   Biso      1.000     H          0.127727  
         H44       1.0000    0.95330   0.90870   0.82300   Biso      1.000     H          0.08733   
         H45       1.0000    0.64100   0.85220   0.15830   Biso      1.000     H          0.112252  
         H46       1.0000    0.53240   0.91560   0.17760   Biso      1.000     H          0.112103  
         H47       1.0000    0.56700   0.91510   0.02200   Biso      1.000     H          0.06294   
         H48       1.0000    0.39630   0.85150   0.97440   Biso      1.000     H          0.122976  
         H49       1.0000    0.38290   0.91530   0.06480   Biso      1.000     H          0.11333   
         H50       1.0000    0.36140   0.68700   0.20830   Biso      1.000     H          0.127727  
         H51       1.0000    0.29550   0.90840   0.57060   Biso      1.000     H          0.092438  
         H52       1.0000    0.64100   0.64780   0.15830   Biso      1.000     H          0.112252  
         H53       1.0000    0.61710   0.41530   0.93520   Biso      1.000     H          0.11333   
         H54       1.0000    0.43300   0.41510   0.97800   Biso      1.000     H          0.06294   
         H55       1.0000    0.70450   0.40840   0.42940   Biso      1.000     H          0.092438  
         H56       1.0000    0.86140   0.31300   0.29170   Biso      1.000     H          0.127727  
         H57       1.0000    0.88290   0.08470   0.43520   Biso      1.000     H          0.11333   
         H58       1.0000    0.89630   0.14850   0.52560   Biso      1.000     H          0.122976  
         H59       1.0000    0.06700   0.08490   0.47800   Biso      1.000     H          0.06294   
         H60       1.0000    0.03240   0.08440   0.32240   Biso      1.000     H          0.112103  
         H61       1.0000    0.66300   0.75000   0.01560   Biso      1.000     H          0.118354  
         H62       1.0000    0.60370   0.35150   0.02560   Biso      1.000     H          0.122976  
         H63       1.0000    0.56970   0.75000   0.94380   Biso      1.000     H          0.114304  
         H64       1.0000    0.06970   0.25000   0.55620   Biso      1.000     H          0.114304  
         H65       1.0000    0.33700   0.25000   0.98440   Biso      1.000     H          0.118354  
         H66       1.0000    0.43030   0.25000   0.05620   Biso      1.000     H          0.114304  
         H67       1.0000    0.83700   0.75000   0.51560   Biso      1.000     H          0.118354  
         H68       1.0000    0.93030   0.75000   0.44380   Biso      1.000     H          0.114304  
         H69       1.0000    0.35900   0.35220   0.84170   Biso      1.000     H          0.112252  
         H70       1.0000    0.46760   0.41560   0.82240   Biso      1.000     H          0.112103  
         H71       1.0000    0.16300   0.25000   0.48440   Biso      1.000     H          0.118354  
         H72       1.0000    0.85900   0.64780   0.65830   Biso      1.000     H          0.112252  
         Mo1       1.0000    0.91393   0.60284   0.06069   Biso      1.000     Mo          0.416986  
         Mo2       1.0000    0.41393   0.10284   0.43931   Biso      1.000     Mo          0.416987  
         Mo3       1.0000    0.91393   0.89716   0.06069   Biso      1.000     Mo          0.416989  
         Mo4       1.0000    0.58607   0.60284   0.56069   Biso      1.000     Mo          0.416987  
         Mo5       1.0000    0.08607   0.39716   0.93931   Biso      1.000     Mo          0.416987  
         Mo6       1.0000    0.58607   0.89716   0.56069   Biso      1.000     Mo          0.416988  
         Mo7       1.0000    0.08607   0.10284   0.93931   Biso      1.000     Mo          0.416988  
         Mo8       1.0000    0.41393   0.39716   0.43931   Biso      1.000     Mo          0.416987  
         N1        1.0000    0.91946   0.19467   0.93252   Biso      1.000     N          -0.102451           
         N2        1.0000    0.96050   0.75000   0.78835   Biso      1.000     N          -0.028628           
         N3        1.0000    0.25300   0.75000   0.57170   Biso      1.000     N          -0.032133           
         N4        1.0000    0.46050   0.25000   0.71165   Biso      1.000     N          -0.028629           
         N5        1.0000    0.53950   0.75000   0.28835   Biso      1.000     N          -0.028629           
         N6        1.0000    0.03950   0.25000   0.21165   Biso      1.000     N          -0.028628           
         N7        1.0000    0.74700   0.25000   0.42830   Biso      1.000     N          -0.032133           
         N8        1.0000    0.43138   0.19426   0.57644   Biso      1.000     N          -0.106898           
         N9        1.0000    0.24700   0.75000   0.07170   Biso      1.000     N          -0.032133           
         N10       1.0000    0.75300   0.25000   0.92830   Biso      1.000     N          -0.032133           
         N11       1.0000    0.41946   0.80533   0.56748   Biso      1.000     N          -0.102451           
         N12       1.0000    0.93138   0.80574   0.92356   Biso      1.000     N          -0.106897           
         N13       1.0000    0.43138   0.30574   0.57644   Biso      1.000     N          -0.106879           
         N14       1.0000    0.56862   0.69426   0.42356   Biso      1.000     N          -0.106897           
         N15       1.0000    0.58054   0.30533   0.43252   Biso      1.000     N          -0.102451           
         N16       1.0000    0.06862   0.30574   0.07644   Biso      1.000     N          -0.106897           
         N17       1.0000    0.08054   0.80533   0.06748   Biso      1.000     N          -0.10245  
         N18       1.0000    0.56862   0.80574   0.42356   Biso      1.000     N          -0.106879           
         N19       1.0000    0.58054   0.19467   0.43252   Biso      1.000     N          -0.102425           
         N20       1.0000    0.06862   0.19426   0.07644   Biso      1.000     N          -0.106879           
         N21       1.0000    0.91946   0.30533   0.93252   Biso      1.000     N          -0.102425           
         N22       1.0000    0.08054   0.69467   0.06748   Biso      1.000     N          -0.102426           
         N23       1.0000    0.41946   0.69467   0.56748   Biso      1.000     N          -0.102425           
         N24       1.0000    0.93138   0.69426   0.92356   Biso      1.000     N          -0.106879           
         O1        1.0000    0.50000   0.50000   0.50000   Biso      1.000     O          -0.649157           
         O2        1.0000    0.00000   0.50000   0.00000   Biso      1.000     O          -0.649157           
         O3        1.0000    0.62276   0.75000   0.58802   Biso      1.000     O          -0.653709           
         O4        1.0000    0.00000   0.00000   0.00000   Biso      1.000     O          -0.649157           
         O5        1.0000    0.37724   0.25000   0.41198   Biso      1.000     O          -0.653709           
         O6        1.0000    0.87724   0.75000   0.08802   Biso      1.000     O          -0.653709           
         O7        1.0000    0.12276   0.25000   0.91198   Biso      1.000     O          -0.653709           
         O8        1.0000    0.50000   0.00000   0.50000   Biso      1.000     O          -0.649157 