
##########################################################################
#               Crystallographic Information Format file
#               Produced by PyCifRW module
#
#  This is a CIF file.  CIF has been adopted by the International
#  Union of Crystallography as the standard for data archiving and
#  transmission.
#
#  For information on this file format, follow the CIF links at
#  http://www.iucr.org
##########################################################################

data_image0

_cell_length_a                          8.7586
_cell_length_b                          10.156
_cell_length_c                          19.476
_cell_angle_alpha                       90
_cell_angle_beta                        90
_cell_angle_gamma                       100.22
_symmetry_space_group_name_H-M          'P 1'
_symmetry_int_tables_number             1
loop_
  _symmetry_equiv_pos_as_xyz
         'x, y, z' 
loop_
  _atom_site_label
  _atom_site_occupancy
  _atom_site_fract_x
  _atom_site_fract_y
  _atom_site_fract_z
  _atom_site_thermal_displace_type
  _atom_site_B_iso_or_equiv
  _atom_site_type_symbol
  _atom_site_charge
         C1        1.0000    0.66620   0.75610   0.23232   Biso      1.000     C          -0.101111           
         C2        1.0000    0.27840   0.31050   0.71337   Biso      1.000     C          -0.014788           
         C3        1.0000    0.72160   0.68950   0.28663   Biso      1.000     C          -0.014785           
         C4        1.0000    0.87910   0.68400   0.28982   Biso      1.000     C          -0.128895           
         C5        1.0000    0.97970   0.74700   0.24115   Biso      1.000     C          -0.093552           
         C6        1.0000    0.92510   0.81670   0.18741   Biso      1.000     C          -0.028569           
         C7        1.0000    0.03740   0.88870   0.13531   Biso      1.000     C          0.628974  
         C8        1.0000    0.63560   0.97900   0.46940   Biso      1.000     C          -0.100011           
         C9        1.0000    0.76710   0.81940   0.18321   Biso      1.000     C          -0.109123           
         C10       1.0000    0.42650   0.90890   0.54680   Biso      1.000     C          -0.121494           
         C11       1.0000    0.63340   0.76800   0.53496   Biso      1.000     C          0.608676  
         C12       1.0000    0.38320   0.87870   0.84201   Biso      1.000     C          0.598516  
         C13       1.0000    0.23290   0.68060   0.68321   Biso      1.000     C          -0.109126           
         C14       1.0000    0.33380   0.74390   0.73232   Biso      1.000     C          -0.101108           
         C15       1.0000    0.27840   0.81050   0.78663   Biso      1.000     C          -0.014785           
         C16       1.0000    0.12090   0.81600   0.78982   Biso      1.000     C          -0.128895           
         C17       1.0000    0.02030   0.75300   0.74115   Biso      1.000     C          -0.093552           
         C18       1.0000    0.56200   0.88670   0.51664   Biso      1.000     C          -0.023213           
         C19       1.0000    0.07490   0.68330   0.68741   Biso      1.000     C          -0.028568           
         C20       1.0000    0.61680   0.62130   0.34201   Biso      1.000     C          0.598517  
         C21       1.0000    0.43800   0.61330   0.01664   Biso      1.000     C          -0.023207           
         C22       1.0000    0.07490   0.18330   0.81259   Biso      1.000     C          -0.028569           
         C23       1.0000    0.96260   0.11130   0.86469   Biso      1.000     C          0.628975  
         C24       1.0000    0.36440   0.02100   0.53060   Biso      1.000     C          -0.100012           
         C25       1.0000    0.57350   0.09110   0.45320   Biso      1.000     C          -0.121494           
         C26       1.0000    0.43800   0.11330   0.48336   Biso      1.000     C          -0.023211           
         C27       1.0000    0.36660   0.23200   0.46504   Biso      1.000     C          0.608673  
         C28       1.0000    0.61680   0.12130   0.15799   Biso      1.000     C          0.598517  
         C29       1.0000    0.36660   0.73200   0.03496   Biso      1.000     C          0.608672  
         C30       1.0000    0.76710   0.31940   0.31679   Biso      1.000     C          -0.109127           
         C31       1.0000    0.72160   0.18950   0.21337   Biso      1.000     C          -0.014787           
         C32       1.0000    0.87910   0.18400   0.21018   Biso      1.000     C          -0.128894           
         C33       1.0000    0.97970   0.24700   0.25885   Biso      1.000     C          -0.093553           
         C34       1.0000    0.92510   0.31670   0.31259   Biso      1.000     C          -0.028568           
         C35       1.0000    0.03740   0.38870   0.36469   Biso      1.000     C          0.628974  
         C36       1.0000    0.36440   0.52100   0.96940   Biso      1.000     C          -0.100015           
         C37       1.0000    0.57350   0.59110   0.04680   Biso      1.000     C          -0.121496           
         C38       1.0000    0.66620   0.25610   0.26768   Biso      1.000     C          -0.101106           
         C39       1.0000    0.96260   0.61130   0.63531   Biso      1.000     C          0.628974  
         C40       1.0000    0.12090   0.31600   0.71018   Biso      1.000     C          -0.128894           
         C41       1.0000    0.02030   0.25300   0.75885   Biso      1.000     C          -0.093553           
         C42       1.0000    0.63560   0.47900   0.03060   Biso      1.000     C          -0.100011           
         C43       1.0000    0.42650   0.40890   0.95320   Biso      1.000     C          -0.121493           
         C44       1.0000    0.56200   0.38670   0.98336   Biso      1.000     C          -0.023211           
         C45       1.0000    0.63340   0.26800   0.96504   Biso      1.000     C          0.608672  
         C46       1.0000    0.38320   0.37870   0.65799   Biso      1.000     C          0.598517  
         C47       1.0000    0.23290   0.18060   0.81679   Biso      1.000     C          -0.109126           
         C48       1.0000    0.33380   0.24390   0.76768   Biso      1.000     C          -0.101106           
         H1        1.0000    0.36700   0.09800   0.99200   Biso      1.000     H          0.484258  
         H2        1.0000    0.25000   0.12900   0.03200   Biso      1.000     H          0.499357  
         H3        1.0000    0.72710   0.96540   0.44850   Biso      1.000     H          0.121535  
         H4        1.0000    0.37620   0.84770   0.57860   Biso      1.000     H          0.113359  
         H5        1.0000    0.27080   0.63580   0.64710   Biso      1.000     H          0.110085  
         H6        1.0000    0.37620   0.34770   0.92140   Biso      1.000     H          0.113359  
         H7        1.0000    0.08350   0.86280   0.82530   Biso      1.000     H          0.095672  
         H8        1.0000    0.91520   0.75690   0.74400   Biso      1.000     H          0.124402  
         H9        1.0000    0.08480   0.74310   0.24400   Biso      1.000     H          0.124402  
         H10       1.0000    0.75000   0.37100   0.53200   Biso      1.000     H          0.499357  
         H11       1.0000    0.43930   0.74200   0.72900   Biso      1.000     H          0.123709  
         H12       1.0000    0.63300   0.40200   0.49200   Biso      1.000     H          0.484258  
         H13       1.0000    0.91650   0.63720   0.32530   Biso      1.000     H          0.095672  
         H14       1.0000    0.72920   0.86420   0.14710   Biso      1.000     H          0.110085  
         H15       1.0000    0.27080   0.13580   0.85290   Biso      1.000     H          0.110085  
         H16       1.0000    0.43930   0.24200   0.77100   Biso      1.000     H          0.123708  
         H17       1.0000    0.08350   0.36280   0.67470   Biso      1.000     H          0.095672  
         H18       1.0000    0.91520   0.25690   0.75600   Biso      1.000     H          0.124403  
         H19       1.0000    0.63300   0.90200   0.00800   Biso      1.000     H          0.484258  
         H20       1.0000    0.75000   0.87100   0.96800   Biso      1.000     H          0.499357  
         H21       1.0000    0.27290   0.03460   0.55150   Biso      1.000     H          0.121535  
         H22       1.0000    0.56070   0.75800   0.22900   Biso      1.000     H          0.123709  
         H23       1.0000    0.62380   0.15230   0.42140   Biso      1.000     H          0.113359  
         H24       1.0000    0.56070   0.25800   0.27100   Biso      1.000     H          0.123708  
         H25       1.0000    0.91650   0.13720   0.17470   Biso      1.000     H          0.095672  
         H26       1.0000    0.08480   0.24310   0.25600   Biso      1.000     H          0.124402  
         H27       1.0000    0.36700   0.59800   0.50800   Biso      1.000     H          0.484259  
         H28       1.0000    0.25000   0.62900   0.46800   Biso      1.000     H          0.499357  
         H29       1.0000    0.27290   0.53460   0.94850   Biso      1.000     H          0.121536  
         H30       1.0000    0.62380   0.65230   0.07860   Biso      1.000     H          0.113359  
         H31       1.0000    0.72920   0.36420   0.35290   Biso      1.000     H          0.110085  
         H32       1.0000    0.72710   0.46540   0.05150   Biso      1.000     H          0.121535  
         Na1       1.0000    0.89124   0.60987   0.46968   Biso      1.000     Na          0.878988  
         Na2       1.0000    0.89124   0.10987   0.03032   Biso      1.000     Na          0.878988  
         Na3       1.0000    0.10876   0.39013   0.53032   Biso      1.000     Na          0.878987  
         Na4       1.0000    0.10876   0.89013   0.96968   Biso      1.000     Na          0.878989  
         O1        1.0000    0.67090   0.59460   0.39728   Biso      1.000     O          -0.636788           
         O2        1.0000    0.98990   0.43000   0.41885   Biso      1.000     O          -0.725826           
         O3        1.0000    0.17880   0.40080   0.34682   Biso      1.000     O          -0.563108           
         O4        1.0000    0.47240   0.09150   0.17247   Biso      1.000     O          -0.572421           
         O5        1.0000    0.67090   0.09460   0.10272   Biso      1.000     O          -0.636788           
         O6        1.0000    0.23000   0.23260   0.47773   Biso      1.000     O          -0.614883           
         O7        1.0000    0.45790   0.32990   0.43510   Biso      1.000     O          -0.602676           
         O8        1.0000    0.01010   0.07000   0.91885   Biso      1.000     O          -0.725826           
         O9        1.0000    0.30120   0.07530   0.02155   Biso      1.000     O          -0.91092  
         O10       1.0000    0.82120   0.09920   0.84682   Biso      1.000     O          -0.56311  
         O11       1.0000    0.52760   0.40850   0.67247   Biso      1.000     O          -0.57242  
         O12       1.0000    0.32910   0.40540   0.60272   Biso      1.000     O          -0.636788           
         O13       1.0000    0.77000   0.26740   0.97773   Biso      1.000     O          -0.614884           
         O14       1.0000    0.30120   0.57530   0.47845   Biso      1.000     O          -0.91092  
         O15       1.0000    0.45790   0.82990   0.06490   Biso      1.000     O          -0.602676           
         O16       1.0000    0.69880   0.92470   0.97845   Biso      1.000     O          -0.910921           
         O17       1.0000    0.54210   0.17010   0.93510   Biso      1.000     O          -0.602677           
         O18       1.0000    0.47240   0.59150   0.32753   Biso      1.000     O          -0.57242  
         O19       1.0000    0.17880   0.90080   0.15318   Biso      1.000     O          -0.563109           
         O20       1.0000    0.98990   0.93000   0.08115   Biso      1.000     O          -0.725826           
         O21       1.0000    0.69880   0.42470   0.52155   Biso      1.000     O          -0.910921           
         O22       1.0000    0.54210   0.67010   0.56490   Biso      1.000     O          -0.602677           
         O23       1.0000    0.77000   0.76740   0.52227   Biso      1.000     O          -0.614883           
         O24       1.0000    0.32910   0.90540   0.89728   Biso      1.000     O          -0.636788           
         O25       1.0000    0.52760   0.90850   0.82753   Biso      1.000     O          -0.572421           
         O26       1.0000    0.82120   0.59920   0.65318   Biso      1.000     O          -0.563109           
         O27       1.0000    0.01010   0.57000   0.58115   Biso      1.000     O          -0.725826           
         O28       1.0000    0.23000   0.73260   0.02227   Biso      1.000     O          -0.614883           
         Zn1       1.0000    0.63730   0.52495   0.60181   Biso      1.000     Zn          0.959844  
         Zn2       1.0000    0.36270   0.97505   0.10181   Biso      1.000     Zn          0.959847  
         Zn3       1.0000    0.36270   0.47505   0.39819   Biso      1.000     Zn          0.959843  
         Zn4       1.0000    0.63730   0.02495   0.89819   Biso      1.000     Zn          0.959846 