
##########################################################################
#               Crystallographic Information Format file
#               Produced by PyCifRW module
#
#  This is a CIF file.  CIF has been adopted by the International
#  Union of Crystallography as the standard for data archiving and
#  transmission.
#
#  For information on this file format, follow the CIF links at
#  http://www.iucr.org
##########################################################################

data_image0

_cell_length_a                          11.797
_cell_length_b                          12.889
_cell_length_c                          14.037
_cell_angle_alpha                       66.065
_cell_angle_beta                        78.731
_cell_angle_gamma                       69.924
_symmetry_space_group_name_H-M          'P 1'
_symmetry_int_tables_number             1
loop_
  _symmetry_equiv_pos_as_xyz
         'x, y, z' 
loop_
  _atom_site_label
  _atom_site_occupancy
  _atom_site_fract_x
  _atom_site_fract_y
  _atom_site_fract_z
  _atom_site_thermal_displace_type
  _atom_site_B_iso_or_equiv
  _atom_site_type_symbol
  _atom_site_charge
         C1        1.0000    0.68950   0.00070   0.53980   Biso      1.000     C          -0.091383           
         C2        1.0000    0.31030   0.38680   0.14080   Biso      1.000     C          -0.149014           
         C3        1.0000    0.42880   0.94420   0.43500   Biso      1.000     C          0.007061  
         C4        1.0000    0.05080   0.50930   0.60490   Biso      1.000     C          -0.098616           
         C5        1.0000    0.08400   0.61350   0.69500   Biso      1.000     C          -0.08996699999999999          
         C6        1.0000    0.50000   0.00920   0.36040   Biso      1.000     C          -0.09232699999999999          
         C7        1.0000    0.12750   0.55130   0.63010   Biso      1.000     C          0.000536  
         C8        1.0000    0.25690   0.52690   0.58800   Biso      1.000     C          0.628021  
         C9        1.0000    0.47830   0.81230   0.48970   Biso      1.000     C          0.550729  
         C10       1.0000    0.07200   0.46210   0.36250   Biso      1.000     C          -0.081866           
         C11       1.0000    0.57120   0.05580   0.56500   Biso      1.000     C          0.007061  
         C12       1.0000    0.61600   0.54250   0.06990   Biso      1.000     C          -0.000271           
         C13       1.0000    0.64730   0.46200   0.01960   Biso      1.000     C          -0.097487           
         C14       1.0000    0.03800   0.35380   0.27510   Biso      1.000     C          -0.097965           
         C15       1.0000    0.62720   0.65610   0.01630   Biso      1.000     C          -0.09612000000000001          
         C16       1.0000    0.37280   0.34390   0.98370   Biso      1.000     C          -0.096121           
         C17       1.0000    0.33580   0.30790   0.09010   Biso      1.000     C          -0.09554299999999999          
         C18       1.0000    0.26220   0.12070   0.41030   Biso      1.000     C          -0.087991           
         C19       1.0000    0.33290   0.18590   0.33590   Biso      1.000     C          -0.145201           
         C20       1.0000    0.11700   0.38930   0.30730   Biso      1.000     C          -0.136345           
         C21       1.0000    0.45340   0.12960   0.31230   Biso      1.000     C          -0.077704           
         C22       1.0000    0.56690   0.50700   0.18230   Biso      1.000     C          0.558068  
         C23       1.0000    0.31050   0.99930   0.46020   Biso      1.000     C          -0.091384           
         C24       1.0000    0.31860   0.50170   0.08530   Biso      1.000     C          -0.079971           
         C25       1.0000    0.52170   0.18770   0.51030   Biso      1.000     C          0.550729  
         C26       1.0000    0.35270   0.53800   0.98040   Biso      1.000     C          -0.097482           
         C27       1.0000    0.43310   0.49300   0.81770   Biso      1.000     C          0.558068  
         C28       1.0000    0.66710   0.81410   0.66410   Biso      1.000     C          -0.1452   
         C29       1.0000    0.88300   0.61070   0.69270   Biso      1.000     C          -0.13636900000000002          
         C30       1.0000    0.54660   0.87040   0.68770   Biso      1.000     C          -0.077706           
         C31       1.0000    0.38400   0.45750   0.93010   Biso      1.000     C          -0.00027  
         C32       1.0000    0.68140   0.49830   0.91470   Biso      1.000     C          -0.079967           
         C33       1.0000    0.74310   0.47310   0.41200   Biso      1.000     C          0.6280220000000001  
         C34       1.0000    0.68970   0.61320   0.85920   Biso      1.000     C          -0.149014           
         C35       1.0000    0.50000   0.99080   0.63960   Biso      1.000     C          -0.092325           
         C36       1.0000    0.73780   0.87930   0.58970   Biso      1.000     C          -0.087992           
         C37       1.0000    0.66420   0.69210   0.90990   Biso      1.000     C          -0.09554299999999999          
         C38       1.0000    0.96200   0.64620   0.72490   Biso      1.000     C          -0.097956           
         C39       1.0000    0.91600   0.38650   0.30500   Biso      1.000     C          -0.089963           
         C40       1.0000    0.92800   0.53790   0.63750   Biso      1.000     C          -0.081847           
         C41       1.0000    0.94920   0.49070   0.39510   Biso      1.000     C          -0.098613           
         C42       1.0000    0.87250   0.44870   0.36990   Biso      1.000     C          0.000536  
         H1        1.0000    0.06670   0.30820   0.23360   Biso      1.000     H          0.113231  
         H2        1.0000    0.12310   0.49300   0.37870   Biso      1.000     H          0.113883  
         H3        1.0000    0.86260   0.36570   0.28030   Biso      1.000     H          0.129019  
         H4        1.0000    0.32850   0.23180   0.12650   Biso      1.000     H          0.11240399999999999           
         H5        1.0000    0.57910   0.97100   0.34310   Biso      1.000     H          0.12698099999999998           
         H6        1.0000    0.18260   0.15840   0.42680   Biso      1.000     H          0.111811  
         H7        1.0000    0.91970   0.53880   0.43430   Biso      1.000     H          0.119651  
         H8        1.0000    0.26360   0.95520   0.51050   Biso      1.000     H          0.127898  
         H9        1.0000    0.35490   0.61570   0.94320   Biso      1.000     H          0.127555  
         H10       1.0000    0.61020   0.70820   0.05110   Biso      1.000     H          0.130388  
         H11       1.0000    0.38980   0.29180   0.94890   Biso      1.000     H          0.130388  
         H12       1.0000    0.50160   0.17390   0.26420   Biso      1.000     H          0.12266800000000001           
         H13       1.0000    0.30080   0.55430   0.11960   Biso      1.000     H          0.115602  
         H14       1.0000    0.42090   0.02900   0.65690   Biso      1.000     H          0.12698099999999998           
         H15       1.0000    0.73640   0.04480   0.48950   Biso      1.000     H          0.127899  
         H16       1.0000    0.08030   0.46120   0.56570   Biso      1.000     H          0.119652  
         H17       1.0000    0.13740   0.63430   0.71970   Biso      1.000     H          0.129019  
         H18       1.0000    0.67150   0.76820   0.87350   Biso      1.000     H          0.112403  
         H19       1.0000    0.81740   0.84160   0.57320   Biso      1.000     H          0.111811  
         H20       1.0000    0.93330   0.69180   0.76640   Biso      1.000     H          0.11323   
         H21       1.0000    0.69920   0.44570   0.88040   Biso      1.000     H          0.115601  
         H22       1.0000    0.64510   0.38430   0.05680   Biso      1.000     H          0.127555  
         H23       1.0000    0.49840   0.82610   0.73580   Biso      1.000     H          0.12266800000000001           
         H24       1.0000    0.87690   0.50700   0.62130   Biso      1.000     H          0.113882  
         O1        1.0000    0.71750   0.51300   0.48260   Biso      1.000     O          -0.571937           
         O2        1.0000    0.42950   0.59770   0.76580   Biso      1.000     O          -0.5633560000000001           
         O3        1.0000    0.48470   0.41120   0.78130   Biso      1.000     O          -0.608642           
         O4        1.0000    0.66580   0.59810   0.67860   Biso      1.000     O          -0.708199           
         O5        1.0000    0.53080   0.39080   0.56620   Biso      1.000     O          -0.678674           
         O6        1.0000    0.67370   0.44310   0.37790   Biso      1.000     O          -0.525154           
         O7        1.0000    0.59200   0.24180   0.44250   Biso      1.000     O          -0.564013           
         O8        1.0000    0.32630   0.55690   0.62210   Biso      1.000     O          -0.525154           
         O9        1.0000    0.40800   0.75820   0.55750   Biso      1.000     O          -0.564014           
         O10       1.0000    0.58330   0.75500   0.46830   Biso      1.000     O          -0.551025           
         O11       1.0000    0.28250   0.48700   0.51740   Biso      1.000     O          -0.571936           
         O12       1.0000    0.57050   0.40230   0.23420   Biso      1.000     O          -0.563355           
         O13       1.0000    0.51530   0.58880   0.21870   Biso      1.000     O          -0.608642           
         O14       1.0000    0.46920   0.60920   0.43380   Biso      1.000     O          -0.678672           
         O15       1.0000    0.33420   0.40190   0.32140   Biso      1.000     O          -0.7081970000000001           
         O16       1.0000    0.41670   0.24500   0.53170   Biso      1.000     O          -0.551024           
         P1        1.0000    0.27660   0.34430   0.27850   Biso      1.000     P          0.875714  
         P2        1.0000    0.72340   0.65570   0.72150   Biso      1.000     P          0.8757159999999999  
         Th1       1.0000    0.46025   0.44961   0.39887   Biso      1.000     Th          2.2175380000000002  
         Th2       1.0000    0.53975   0.55039   0.60113   Biso      1.000     Th          2.217542 