
##########################################################################
#               Crystallographic Information Format file
#               Produced by PyCifRW module
#
#  This is a CIF file.  CIF has been adopted by the International
#  Union of Crystallography as the standard for data archiving and
#  transmission.
#
#  For information on this file format, follow the CIF links at
#  http://www.iucr.org
##########################################################################

data_image0

_cell_length_a                          14.693
_cell_length_b                          14.693
_cell_length_c                          15.125
_cell_angle_alpha                       90
_cell_angle_beta                        90
_cell_angle_gamma                       120
_symmetry_space_group_name_H-M          'P 1'
_symmetry_int_tables_number             1
loop_
  _symmetry_equiv_pos_as_xyz
         'x, y, z' 
loop_
  _atom_site_label
  _atom_site_occupancy
  _atom_site_fract_x
  _atom_site_fract_y
  _atom_site_fract_z
  _atom_site_thermal_displace_type
  _atom_site_B_iso_or_equiv
  _atom_site_type_symbol
  _atom_site_charge
         C1        1.0000    0.86940   0.35540   0.36074   Biso      1.000     C          0.669755  
         C2        1.0000    0.13060   0.48600   0.86074   Biso      1.000     C          0.669746  
         C3        1.0000    0.26440   0.85140   0.80350   Biso      1.000     C          -0.16051300000000002          
         C4        1.0000    0.35540   0.86940   0.86074   Biso      1.000     C          0.6697489999999999  
         C5        1.0000    0.58700   0.73560   0.80350   Biso      1.000     C          -0.16052  
         C6        1.0000    0.51400   0.64460   0.86074   Biso      1.000     C          0.669754  
         C7        1.0000    0.85140   0.58700   0.80350   Biso      1.000     C          -0.16051500000000002          
         C8        1.0000    0.86940   0.51400   0.86074   Biso      1.000     C          0.669746  
         C9        1.0000    0.73560   0.14860   0.80350   Biso      1.000     C          -0.16051500000000002          
         C10       1.0000    0.64460   0.13060   0.86074   Biso      1.000     C          0.669751  
         C11       1.0000    0.14860   0.41300   0.80350   Biso      1.000     C          -0.16051300000000002          
         C12       1.0000    0.41300   0.26440   0.80350   Biso      1.000     C          -0.160519           
         C13       1.0000    0.73560   0.58700   0.69650   Biso      1.000     C          -0.16051300000000002          
         C14       1.0000    0.64460   0.51400   0.63926   Biso      1.000     C          0.669746  
         C15       1.0000    0.41300   0.14860   0.69650   Biso      1.000     C          -0.16051400000000002          
         C16       1.0000    0.85140   0.26440   0.69650   Biso      1.000     C          -0.160521           
         C17       1.0000    0.86940   0.35540   0.63926   Biso      1.000     C          0.669755  
         C18       1.0000    0.26440   0.41300   0.69650   Biso      1.000     C          -0.160512           
         C19       1.0000    0.35540   0.48600   0.63926   Biso      1.000     C          0.669744  
         C20       1.0000    0.58700   0.85140   0.69650   Biso      1.000     C          -0.16051400000000002          
         C21       1.0000    0.51400   0.86940   0.63926   Biso      1.000     C          0.66975   
         C22       1.0000    0.48600   0.35540   0.86074   Biso      1.000     C          0.669754  
         C23       1.0000    0.14860   0.73560   0.69650   Biso      1.000     C          -0.160518           
         C24       1.0000    0.85140   0.26440   0.30350   Biso      1.000     C          -0.160519           
         C25       1.0000    0.41300   0.14860   0.30350   Biso      1.000     C          -0.16051600000000002          
         C26       1.0000    0.85140   0.58700   0.19650   Biso      1.000     C          -0.16051400000000002          
         C27       1.0000    0.86940   0.51400   0.13926   Biso      1.000     C          0.669747  
         C28       1.0000    0.73560   0.14860   0.19650   Biso      1.000     C          -0.16051400000000002          
         C29       1.0000    0.64460   0.13060   0.13926   Biso      1.000     C          0.66975   
         C30       1.0000    0.41300   0.26440   0.19650   Biso      1.000     C          -0.160521           
         C31       1.0000    0.48600   0.35540   0.13926   Biso      1.000     C          0.669755  
         C32       1.0000    0.14860   0.41300   0.19650   Biso      1.000     C          -0.16051400000000002          
         C33       1.0000    0.13060   0.48600   0.13926   Biso      1.000     C          0.669744  
         C34       1.0000    0.26440   0.85140   0.19650   Biso      1.000     C          -0.16051300000000002          
         C35       1.0000    0.48600   0.13060   0.36074   Biso      1.000     C          0.669751  
         C36       1.0000    0.35540   0.86940   0.13926   Biso      1.000     C          0.6697489999999999  
         C37       1.0000    0.51400   0.64460   0.13926   Biso      1.000     C          0.6697529999999999  
         C38       1.0000    0.26440   0.41300   0.30350   Biso      1.000     C          -0.160512           
         C39       1.0000    0.35540   0.48600   0.36074   Biso      1.000     C          0.669745  
         C40       1.0000    0.58700   0.85140   0.30350   Biso      1.000     C          -0.16051300000000002          
         C41       1.0000    0.51400   0.86940   0.36074   Biso      1.000     C          0.669748  
         C42       1.0000    0.14860   0.73560   0.30350   Biso      1.000     C          -0.160519           
         C43       1.0000    0.13060   0.64460   0.36074   Biso      1.000     C          0.6697529999999999  
         C44       1.0000    0.73560   0.58700   0.30350   Biso      1.000     C          -0.16051400000000002          
         C45       1.0000    0.64460   0.51400   0.36074   Biso      1.000     C          0.669745  
         C46       1.0000    0.58700   0.73560   0.19650   Biso      1.000     C          -0.16051700000000002          
         C47       1.0000    0.13060   0.64460   0.63926   Biso      1.000     C          0.669754  
         C48       1.0000    0.48600   0.13060   0.63926   Biso      1.000     C          0.66975   
         Cu1       1.0000    0.00000   0.50000   0.50000   Biso      1.000     Cu          0.987625  
         Cu2       1.0000    0.50000   0.00000   0.50000   Biso      1.000     Cu          0.9876309999999999  
         Cu3       1.0000    0.50000   0.50000   0.50000   Biso      1.000     Cu          0.9876290000000001  
         Cu4       1.0000    0.50000   0.50000   0.00000   Biso      1.000     Cu          0.9876229999999999  
         Cu5       1.0000    0.50000   0.00000   0.00000   Biso      1.000     Cu          0.9876280000000001  
         Cu6       1.0000    0.00000   0.50000   0.00000   Biso      1.000     Cu          0.987632  
         H1        1.0000    0.20530   0.83960   0.15980   Biso      1.000     H          0.12246300000000002           
         H2        1.0000    0.91280   0.62880   0.76700   Biso      1.000     H          0.11005799999999999           
         H3        1.0000    0.83960   0.63430   0.84020   Biso      1.000     H          0.122475  
         H4        1.0000    0.71600   0.08720   0.76700   Biso      1.000     H          0.110054  
         H5        1.0000    0.79470   0.16040   0.84020   Biso      1.000     H          0.12246800000000001           
         H6        1.0000    0.37120   0.28400   0.76700   Biso      1.000     H          0.110053  
         H7        1.0000    0.36570   0.20530   0.84020   Biso      1.000     H          0.12247100000000001           
         H8        1.0000    0.71600   0.62880   0.73300   Biso      1.000     H          0.11005699999999999           
         H9        1.0000    0.79470   0.63430   0.65980   Biso      1.000     H          0.122472  
         H10       1.0000    0.37120   0.08720   0.73300   Biso      1.000     H          0.110054  
         H11       1.0000    0.62880   0.71600   0.23300   Biso      1.000     H          0.11005   
         H12       1.0000    0.91280   0.28400   0.73300   Biso      1.000     H          0.110053  
         H13       1.0000    0.63430   0.79470   0.84020   Biso      1.000     H          0.12247000000000001           
         H14       1.0000    0.28400   0.37120   0.73300   Biso      1.000     H          0.110056  
         H15       1.0000    0.20530   0.36570   0.65980   Biso      1.000     H          0.12246900000000001           
         H16       1.0000    0.62880   0.91280   0.73300   Biso      1.000     H          0.110053  
         H17       1.0000    0.63430   0.83960   0.65980   Biso      1.000     H          0.122467  
         H18       1.0000    0.08720   0.71600   0.73300   Biso      1.000     H          0.110051  
         H19       1.0000    0.16040   0.79470   0.65980   Biso      1.000     H          0.12247000000000001           
         H20       1.0000    0.36570   0.16040   0.65980   Biso      1.000     H          0.12246800000000001           
         H21       1.0000    0.62880   0.71600   0.76700   Biso      1.000     H          0.110052  
         H22       1.0000    0.83960   0.20530   0.65980   Biso      1.000     H          0.122474  
         H23       1.0000    0.28400   0.91280   0.76700   Biso      1.000     H          0.110052  
         H24       1.0000    0.20530   0.83960   0.84020   Biso      1.000     H          0.122464  
         H25       1.0000    0.28400   0.91280   0.23300   Biso      1.000     H          0.110052  
         H26       1.0000    0.16040   0.36570   0.15980   Biso      1.000     H          0.12247100000000001           
         H27       1.0000    0.08720   0.37120   0.23300   Biso      1.000     H          0.110056  
         H28       1.0000    0.36570   0.20530   0.15980   Biso      1.000     H          0.122474  
         H29       1.0000    0.37120   0.28400   0.23300   Biso      1.000     H          0.110053  
         H30       1.0000    0.79470   0.16040   0.15980   Biso      1.000     H          0.122466  
         H31       1.0000    0.71600   0.08720   0.23300   Biso      1.000     H          0.110054  
         H32       1.0000    0.91280   0.62880   0.23300   Biso      1.000     H          0.11005799999999999           
         H33       1.0000    0.63430   0.79470   0.15980   Biso      1.000     H          0.122466  
         H34       1.0000    0.28400   0.37120   0.26700   Biso      1.000     H          0.110055  
         H35       1.0000    0.20530   0.36570   0.34020   Biso      1.000     H          0.12246900000000001           
         H36       1.0000    0.62880   0.91280   0.26700   Biso      1.000     H          0.110052  
         H37       1.0000    0.83960   0.63430   0.15980   Biso      1.000     H          0.122475  
         H38       1.0000    0.08720   0.71600   0.26700   Biso      1.000     H          0.110051  
         H39       1.0000    0.16040   0.36570   0.84020   Biso      1.000     H          0.122472  
         H40       1.0000    0.63430   0.83960   0.34020   Biso      1.000     H          0.12246300000000002           
         H41       1.0000    0.08720   0.37120   0.76700   Biso      1.000     H          0.110056  
         H42       1.0000    0.83960   0.20530   0.34020   Biso      1.000     H          0.122472  
         H43       1.0000    0.91280   0.28400   0.26700   Biso      1.000     H          0.110052  
         H44       1.0000    0.36570   0.16040   0.34020   Biso      1.000     H          0.12247000000000001           
         H45       1.0000    0.79470   0.63430   0.34020   Biso      1.000     H          0.122473  
         H46       1.0000    0.71600   0.62880   0.26700   Biso      1.000     H          0.11005699999999999           
         H47       1.0000    0.16040   0.79470   0.34020   Biso      1.000     H          0.12246900000000001           
         H48       1.0000    0.37120   0.08720   0.26700   Biso      1.000     H          0.110055  
         O1        1.0000    0.38732   0.80505   0.14393   Biso      1.000     O          -0.6350680000000001           
         O2        1.0000    0.41773   0.61268   0.14393   Biso      1.000     O          -0.635073           
         O3        1.0000    0.39030   0.94784   0.09006   Biso      1.000     O          -0.567761           
         O4        1.0000    0.19495   0.58227   0.14393   Biso      1.000     O          -0.6350600000000001           
         O5        1.0000    0.55754   0.60970   0.09006   Biso      1.000     O          -0.567756           
         O6        1.0000    0.39030   0.44246   0.40994   Biso      1.000     O          -0.567752           
         O7        1.0000    0.05216   0.60970   0.40994   Biso      1.000     O          -0.567757           
         O8        1.0000    0.55754   0.94784   0.40994   Biso      1.000     O          -0.56776  
         O9        1.0000    0.41773   0.80505   0.35607   Biso      1.000     O          -0.6350680000000001           
         O10       1.0000    0.60970   0.55754   0.40994   Biso      1.000     O          -0.567749           
         O11       1.0000    0.05216   0.44246   0.09006   Biso      1.000     O          -0.567751           
         O12       1.0000    0.19495   0.61268   0.35607   Biso      1.000     O          -0.635073           
         O13       1.0000    0.38732   0.58227   0.35607   Biso      1.000     O          -0.635062           
         O14       1.0000    0.58227   0.38732   0.14393   Biso      1.000     O          -0.635073           
         O15       1.0000    0.76375   0.52750   0.25000   Biso      1.000     O          -0.22789  
         O16       1.0000    0.61268   0.19495   0.14393   Biso      1.000     O          -0.635069           
         O17       1.0000    0.60970   0.05216   0.09006   Biso      1.000     O          -0.567758           
         O18       1.0000    0.80505   0.41773   0.14393   Biso      1.000     O          -0.635061           
         O19       1.0000    0.94784   0.55754   0.09006   Biso      1.000     O          -0.567749           
         O20       1.0000    0.23625   0.76375   0.75000   Biso      1.000     O          -0.22787399999999997          
         O21       1.0000    0.52750   0.76375   0.75000   Biso      1.000     O          -0.227871           
         O22       1.0000    0.23625   0.47250   0.75000   Biso      1.000     O          -0.22789099999999998          
         O23       1.0000    0.76375   0.23625   0.75000   Biso      1.000     O          -0.227871           
         O24       1.0000    0.47250   0.23625   0.75000   Biso      1.000     O          -0.227872           
         O25       1.0000    0.76375   0.52750   0.75000   Biso      1.000     O          -0.22789  
         O26       1.0000    0.23625   0.76375   0.25000   Biso      1.000     O          -0.227873           
         O27       1.0000    0.47250   0.23625   0.25000   Biso      1.000     O          -0.22786900000000002          
         O28       1.0000    0.61268   0.41773   0.35607   Biso      1.000     O          -0.635062           
         O29       1.0000    0.76375   0.23625   0.25000   Biso      1.000     O          -0.227873           
         O30       1.0000    0.44246   0.39030   0.09006   Biso      1.000     O          -0.567754           
         O31       1.0000    0.44246   0.05216   0.40994   Biso      1.000     O          -0.567758           
         O32       1.0000    0.23625   0.47250   0.25000   Biso      1.000     O          -0.22789099999999998          
         O33       1.0000    0.94784   0.39030   0.40994   Biso      1.000     O          -0.567755           
         O34       1.0000    0.52750   0.76375   0.25000   Biso      1.000     O          -0.22787399999999997          
         O35       1.0000    0.19495   0.61268   0.64393   Biso      1.000     O          -0.6350720000000001           
         O36       1.0000    0.05216   0.60970   0.59006   Biso      1.000     O          -0.567756           
         O37       1.0000    0.41773   0.80505   0.64393   Biso      1.000     O          -0.635067           
         O38       1.0000    0.55754   0.94784   0.59006   Biso      1.000     O          -0.567759           
         O39       1.0000    0.38732   0.58227   0.64393   Biso      1.000     O          -0.635061           
         O40       1.0000    0.39030   0.44246   0.59006   Biso      1.000     O          -0.567751           
         O41       1.0000    0.80505   0.38732   0.64393   Biso      1.000     O          -0.635073           
         O42       1.0000    0.94784   0.39030   0.59006   Biso      1.000     O          -0.567754           
         O43       1.0000    0.58227   0.19495   0.64393   Biso      1.000     O          -0.6350680000000001           
         O44       1.0000    0.44246   0.05216   0.59006   Biso      1.000     O          -0.567758           
         O45       1.0000    0.58227   0.19495   0.35607   Biso      1.000     O          -0.635067           
         O46       1.0000    0.60970   0.55754   0.59006   Biso      1.000     O          -0.56775  
         O47       1.0000    0.61268   0.41773   0.64393   Biso      1.000     O          -0.635062           
         O48       1.0000    0.44246   0.39030   0.90994   Biso      1.000     O          -0.567754           
         O49       1.0000    0.80505   0.38732   0.35607   Biso      1.000     O          -0.635074           
         O50       1.0000    0.05216   0.44246   0.90994   Biso      1.000     O          -0.56775  
         O51       1.0000    0.19495   0.58227   0.85607   Biso      1.000     O          -0.6350600000000001           
         O52       1.0000    0.58227   0.38732   0.85607   Biso      1.000     O          -0.635073           
         O53       1.0000    0.38732   0.80505   0.85607   Biso      1.000     O          -0.635067           
         O54       1.0000    0.39030   0.94784   0.90994   Biso      1.000     O          -0.567759           
         O55       1.0000    0.41773   0.61268   0.85607   Biso      1.000     O          -0.6350720000000001           
         O56       1.0000    0.94784   0.55754   0.90994   Biso      1.000     O          -0.567749           
         O57       1.0000    0.80505   0.41773   0.85607   Biso      1.000     O          -0.6350600000000001           
         O58       1.0000    0.60970   0.05216   0.90994   Biso      1.000     O          -0.567758           
         O59       1.0000    0.61268   0.19495   0.85607   Biso      1.000     O          -0.6350680000000001           
         O60       1.0000    0.55754   0.60970   0.90994   Biso      1.000     O          -0.567755           
         Tb1       1.0000    0.33333   0.66666   0.25000   Biso      1.000     Tb          1.9685740000000003  
         Tb2       1.0000    0.66667   0.33334   0.25000   Biso      1.000     Tb          1.968578  
         Tb3       1.0000    0.66667   0.33334   0.75000   Biso      1.000     Tb          1.968578  
         Tb4       1.0000    0.33333   0.66666   0.75000   Biso      1.000     Tb          1.9685740000000003 