
##########################################################################
#               Crystallographic Information Format file
#               Produced by PyCifRW module
#
#  This is a CIF file.  CIF has been adopted by the International
#  Union of Crystallography as the standard for data archiving and
#  transmission.
#
#  For information on this file format, follow the CIF links at
#  http://www.iucr.org
##########################################################################

data_image0

_cell_length_a                          6.8636
_cell_length_b                          11.979
_cell_length_c                          13.651
_cell_angle_alpha                       90
_cell_angle_beta                        99.65
_cell_angle_gamma                       90
_symmetry_space_group_name_H-M          'P 1'
_symmetry_int_tables_number             1
loop_
  _symmetry_equiv_pos_as_xyz
         'x, y, z' 
loop_
  _atom_site_label
  _atom_site_occupancy
  _atom_site_fract_x
  _atom_site_fract_y
  _atom_site_fract_z
  _atom_site_thermal_displace_type
  _atom_site_B_iso_or_equiv
  _atom_site_type_symbol
  _atom_site_charge
         C1        1.0000    0.12780   0.26310   0.50670   Biso      1.000     C          0.623062  
         C2        1.0000    0.68500   0.40040   0.47290   Biso      1.000     C          -0.135723           
         C3        1.0000    0.65660   0.37340   0.56850   Biso      1.000     C          0.034942  
         C4        1.0000    0.48000   0.32350   0.58240   Biso      1.000     C          -0.142443           
         C5        1.0000    0.33290   0.30850   0.50030   Biso      1.000     C          0.122467  
         C6        1.0000    0.55200   0.39710   0.28720   Biso      1.000     C          0.610679  
         C7        1.0000    0.81420   0.39880   0.65740   Biso      1.000     C          0.615736  
         C8        1.0000    0.68500   0.09960   0.97290   Biso      1.000     C          -0.135723           
         C9        1.0000    0.48000   0.17650   0.08240   Biso      1.000     C          -0.142443           
         C10       1.0000    0.87220   0.73690   0.49330   Biso      1.000     C          0.623063  
         C11       1.0000    0.66710   0.69150   0.49970   Biso      1.000     C          0.122466  
         C12       1.0000    0.52000   0.67650   0.41760   Biso      1.000     C          -0.142442           
         C13       1.0000    0.34340   0.62660   0.43150   Biso      1.000     C          0.034942  
         C14       1.0000    0.65660   0.12660   0.06850   Biso      1.000     C          0.034942  
         C15       1.0000    0.53540   0.12400   0.89440   Biso      1.000     C          0.121984  
         C16       1.0000    0.44800   0.60290   0.71280   Biso      1.000     C          0.61068   
         C17       1.0000    0.33290   0.19150   0.00030   Biso      1.000     C          0.122468  
         C18       1.0000    0.53540   0.37600   0.39440   Biso      1.000     C          0.121984  
         C19       1.0000    0.12780   0.23690   0.00670   Biso      1.000     C          0.623062  
         C20       1.0000    0.46460   0.87600   0.10560   Biso      1.000     C          0.121984  
         C21       1.0000    0.31500   0.90040   0.02710   Biso      1.000     C          -0.135723           
         C22       1.0000    0.34340   0.87340   0.93150   Biso      1.000     C          0.034942  
         C23       1.0000    0.52000   0.82350   0.91760   Biso      1.000     C          -0.142443           
         C24       1.0000    0.66710   0.80850   0.99970   Biso      1.000     C          0.122468  
         C25       1.0000    0.87220   0.76310   0.99330   Biso      1.000     C          0.623062  
         C26       1.0000    0.18580   0.60120   0.34260   Biso      1.000     C          0.615737  
         C27       1.0000    0.18580   0.89880   0.84260   Biso      1.000     C          0.615736  
         C28       1.0000    0.44800   0.89710   0.21280   Biso      1.000     C          0.61068   
         C29       1.0000    0.46460   0.62400   0.60560   Biso      1.000     C          0.121984  
         C30       1.0000    0.31500   0.59960   0.52710   Biso      1.000     C          -0.135723           
         C31       1.0000    0.81420   0.10120   0.15740   Biso      1.000     C          0.615736  
         C32       1.0000    0.55200   0.10290   0.78720   Biso      1.000     C          0.610679  
         H1        1.0000    0.46100   0.30080   0.64520   Biso      1.000     H          0.137465  
         H2        1.0000    0.53900   0.80080   0.85480   Biso      1.000     H          0.137465  
         H3        1.0000    0.19840   0.56610   0.53810   Biso      1.000     H          0.142263  
         H4        1.0000    0.53900   0.69920   0.35480   Biso      1.000     H          0.137465  
         H5        1.0000    0.80160   0.43390   0.46190   Biso      1.000     H          0.142263  
         H6        1.0000    0.19840   0.93390   0.03810   Biso      1.000     H          0.142264  
         H7        1.0000    0.46100   0.19920   0.14520   Biso      1.000     H          0.137465  
         H8        1.0000    0.80160   0.06610   0.96190   Biso      1.000     H          0.142264  
         La1       1.0000    0.94072   0.83039   0.24216   Biso      1.000     La          1.952953  
         La2       1.0000    0.94072   0.66961   0.74216   Biso      1.000     La          1.952953  
         La3       1.0000    0.05928   0.33039   0.25784   Biso      1.000     La          1.952951  
         La4       1.0000    0.05928   0.16961   0.75784   Biso      1.000     La          1.952949  
         N1        1.0000    0.35950   0.33430   0.40790   Biso      1.000     N          -0.375816           
         N2        1.0000    0.64050   0.66570   0.59210   Biso      1.000     N          -0.375816           
         N3        1.0000    0.35950   0.16570   0.90790   Biso      1.000     N          -0.375815           
         N4        1.0000    0.64050   0.83430   0.09210   Biso      1.000     N          -0.375816           
         O1        1.0000    0.60710   0.59810   0.77390   Biso      1.000     O          -0.622703           
         O2        1.0000    0.27890   0.59080   0.73400   Biso      1.000     O          -0.619283           
         O3        1.0000    0.98860   0.74760   0.57440   Biso      1.000     O          -0.596957           
         O4        1.0000    0.91180   0.75840   0.40970   Biso      1.000     O          -0.629936           
         O5        1.0000    0.91670   0.01520   0.15300   Biso      1.000     O          -0.619382           
         O6        1.0000    0.91670   0.48480   0.65300   Biso      1.000     O          -0.619381           
         O7        1.0000    0.08820   0.25840   0.09030   Biso      1.000     O          -0.629935           
         O8        1.0000    0.60710   0.90190   0.27390   Biso      1.000     O          -0.622704           
         O9        1.0000    0.27890   0.90920   0.23400   Biso      1.000     O          -0.619283           
         O10       1.0000    0.98860   0.75240   0.07440   Biso      1.000     O          -0.596957           
         O11       1.0000    0.91180   0.74160   0.90970   Biso      1.000     O          -0.629936           
         O12       1.0000    0.17070   0.83110   0.77160   Biso      1.000     O          -0.619312           
         O13       1.0000    0.08330   0.98480   0.84700   Biso      1.000     O          -0.619381           
         O14       1.0000    0.39290   0.40190   0.22610   Biso      1.000     O          -0.622703           
         O15       1.0000    0.72110   0.40920   0.26600   Biso      1.000     O          -0.619282           
         O16       1.0000    0.01140   0.25240   0.42560   Biso      1.000     O          -0.596956           
         O17       1.0000    0.08820   0.24160   0.59030   Biso      1.000     O          -0.629935           
         O18       1.0000    0.82930   0.33110   0.72840   Biso      1.000     O          -0.619311           
         O19       1.0000    0.17070   0.66890   0.27160   Biso      1.000     O          -0.619312           
         O20       1.0000    0.39290   0.09810   0.72610   Biso      1.000     O          -0.622703           
         O21       1.0000    0.72110   0.09080   0.76600   Biso      1.000     O          -0.619282           
         O22       1.0000    0.01140   0.24760   0.92560   Biso      1.000     O          -0.596956           
         O23       1.0000    0.82930   0.16890   0.22840   Biso      1.000     O          -0.619311           
         O24       1.0000    0.08330   0.51520   0.34700   Biso      1.000     O          -0.619382 