
##########################################################################
#               Crystallographic Information Format file
#               Produced by PyCifRW module
#
#  This is a CIF file.  CIF has been adopted by the International
#  Union of Crystallography as the standard for data archiving and
#  transmission.
#
#  For information on this file format, follow the CIF links at
#  http://www.iucr.org
##########################################################################

data_image0

_cell_length_a                          13.3473
_cell_length_b                          13.3473
_cell_length_c                          14.2599
_cell_angle_alpha                       90
_cell_angle_beta                        90
_cell_angle_gamma                       120
_symmetry_space_group_name_H-M          'P 1'
_symmetry_int_tables_number             1
loop_
  _symmetry_equiv_pos_as_xyz
         'x, y, z' 
loop_
  _atom_site_label
  _atom_site_occupancy
  _atom_site_fract_x
  _atom_site_fract_y
  _atom_site_fract_z
  _atom_site_thermal_displace_type
  _atom_site_B_iso_or_equiv
  _atom_site_type_symbol
  _atom_site_charge
         C1        1.0000    0.88210   0.55130   0.85890   Biso      1.000     C          -0.243917           
         C2        1.0000    0.35260   0.09870   0.51140   Biso      1.000     C          -0.227456           
         C3        1.0000    0.45330   0.18550   0.56980   Biso      1.000     C          0.647346  
         C4        1.0000    0.56340   0.43670   0.83830   Biso      1.000     C          0.690686  
         C5        1.0000    0.44870   0.33080   0.85890   Biso      1.000     C          -0.243913           
         C6        1.0000    0.35260   0.25390   0.01140   Biso      1.000     C          -0.227457           
         C7        1.0000    0.45330   0.26780   0.06980   Biso      1.000     C          0.647349  
         C8        1.0000    0.87330   0.43660   0.83830   Biso      1.000     C          0.690678  
         C9        1.0000    0.90130   0.64740   0.01140   Biso      1.000     C          -0.227453           
         C10       1.0000    0.81450   0.54670   0.06980   Biso      1.000     C          0.647342  
         C11       1.0000    0.56330   0.12670   0.83830   Biso      1.000     C          0.690683  
         C12       1.0000    0.66920   0.11790   0.85890   Biso      1.000     C          -0.24391  
         C13       1.0000    0.74610   0.09870   0.01140   Biso      1.000     C          -0.227458           
         C14       1.0000    0.73220   0.18550   0.06980   Biso      1.000     C          0.647345  
         C15       1.0000    0.12670   0.56330   0.66170   Biso      1.000     C          0.690683  
         C16       1.0000    0.11790   0.66920   0.64110   Biso      1.000     C          -0.243913           
         C17       1.0000    0.09870   0.74610   0.48860   Biso      1.000     C          -0.227456           
         C18       1.0000    0.18550   0.73220   0.43020   Biso      1.000     C          0.647348  
         C19       1.0000    0.43670   0.56340   0.66170   Biso      1.000     C          0.690679  
         C20       1.0000    0.33080   0.44870   0.64110   Biso      1.000     C          -0.243916           
         C21       1.0000    0.25390   0.35260   0.48860   Biso      1.000     C          -0.227454           
         C22       1.0000    0.26780   0.45330   0.43020   Biso      1.000     C          0.647342  
         C23       1.0000    0.43660   0.87330   0.66170   Biso      1.000     C          0.690684  
         C24       1.0000    0.55130   0.88210   0.64110   Biso      1.000     C          -0.243913           
         C25       1.0000    0.44870   0.11790   0.35890   Biso      1.000     C          -0.243915           
         C26       1.0000    0.56340   0.12670   0.33830   Biso      1.000     C          0.690685  
         C27       1.0000    0.73220   0.54670   0.56980   Biso      1.000     C          0.64734   
         C28       1.0000    0.74610   0.64740   0.51140   Biso      1.000     C          -0.227455           
         C29       1.0000    0.43660   0.56330   0.16170   Biso      1.000     C          0.690686  
         C30       1.0000    0.55130   0.66920   0.14110   Biso      1.000     C          -0.243917           
         C31       1.0000    0.64740   0.74610   0.98860   Biso      1.000     C          -0.227457           
         C32       1.0000    0.54670   0.73220   0.93020   Biso      1.000     C          0.647348  
         C33       1.0000    0.12670   0.56340   0.16170   Biso      1.000     C          0.690677  
         C34       1.0000    0.64740   0.90130   0.48860   Biso      1.000     C          -0.227458           
         C35       1.0000    0.09870   0.35260   0.98860   Biso      1.000     C          -0.227455           
         C36       1.0000    0.18550   0.45330   0.93020   Biso      1.000     C          0.64734   
         C37       1.0000    0.43670   0.87330   0.16170   Biso      1.000     C          0.690683  
         C38       1.0000    0.11790   0.44870   0.14110   Biso      1.000     C          -0.24392  
         C39       1.0000    0.25390   0.90130   0.98860   Biso      1.000     C          -0.227457           
         C40       1.0000    0.26780   0.81450   0.93020   Biso      1.000     C          0.647346  
         C41       1.0000    0.87330   0.43670   0.33830   Biso      1.000     C          0.690683  
         C42       1.0000    0.88210   0.33080   0.35890   Biso      1.000     C          -0.243918           
         C43       1.0000    0.90130   0.25390   0.51140   Biso      1.000     C          -0.227456           
         C44       1.0000    0.81450   0.26780   0.56980   Biso      1.000     C          0.647349  
         C45       1.0000    0.56330   0.43660   0.33830   Biso      1.000     C          0.69068   
         C46       1.0000    0.66920   0.55130   0.35890   Biso      1.000     C          -0.243919           
         C47       1.0000    0.33080   0.88210   0.14110   Biso      1.000     C          -0.243912           
         C48       1.0000    0.54670   0.81450   0.43020   Biso      1.000     C          0.647345  
         Cu1       1.0000    0.50000   0.50000   0.00000   Biso      1.000     Cu          0.784016  
         Cu2       1.0000    0.00000   0.50000   0.00000   Biso      1.000     Cu          0.784017  
         Cu3       1.0000    0.50000   0.00000   0.00000   Biso      1.000     Cu          0.78402   
         Cu4       1.0000    0.00000   0.50000   0.50000   Biso      1.000     Cu          0.784018  
         Cu5       1.0000    0.50000   0.50000   0.50000   Biso      1.000     Cu          0.784018  
         Cu6       1.0000    0.50000   0.00000   0.50000   Biso      1.000     Cu          0.784018  
         Er1       1.0000    0.33333   0.66666   0.33304   Biso      1.000     Er          2.075173  
         Er2       1.0000    0.66667   0.33334   0.66696   Biso      1.000     Er          2.075176  
         Er3       1.0000    0.66667   0.33334   0.16696   Biso      1.000     Er          2.075177  
         Er4       1.0000    0.33333   0.66666   0.83304   Biso      1.000     Er          2.075176  
         H1        1.0000    0.80550   0.53950   0.87070   Biso      1.000     H          0.149982  
         H2        1.0000    0.91330   0.60100   0.80440   Biso      1.000     H          0.146032  
         H3        1.0000    0.96010   0.70500   0.05210   Biso      1.000     H          0.142288  
         H4        1.0000    0.86250   0.68290   0.97980   Biso      1.000     H          0.126348  
         H5        1.0000    0.02260   0.67290   0.92030   Biso      1.000     H          0.258408  
         H6        1.0000    0.73400   0.19450   0.87070   Biso      1.000     H          0.149985  
         H7        1.0000    0.68770   0.08670   0.80440   Biso      1.000     H          0.146034  
         H8        1.0000    0.74490   0.03990   0.05210   Biso      1.000     H          0.142301  
         H9        1.0000    0.82040   0.13750   0.97980   Biso      1.000     H          0.126354  
         H10       1.0000    0.65030   0.97740   0.92030   Biso      1.000     H          0.258407  
         H11       1.0000    0.19450   0.73400   0.62930   Biso      1.000     H          0.149985  
         H12       1.0000    0.08670   0.68770   0.69560   Biso      1.000     H          0.146028  
         H13       1.0000    0.03990   0.74490   0.44790   Biso      1.000     H          0.142284  
         H14       1.0000    0.13750   0.82040   0.52020   Biso      1.000     H          0.126349  
         H15       1.0000    0.97740   0.65030   0.57970   Biso      1.000     H          0.258404  
         H16       1.0000    0.26600   0.46050   0.62930   Biso      1.000     H          0.149988  
         H17       1.0000    0.31230   0.39900   0.69560   Biso      1.000     H          0.146034  
         H18       1.0000    0.25510   0.29500   0.44790   Biso      1.000     H          0.142292  
         H19       1.0000    0.17960   0.31710   0.52020   Biso      1.000     H          0.126355  
         H20       1.0000    0.34970   0.32710   0.57970   Biso      1.000     H          0.258409  
         H21       1.0000    0.53950   0.80550   0.62930   Biso      1.000     H          0.149983  
         H22       1.0000    0.60100   0.91330   0.69560   Biso      1.000     H          0.146034  
         H23       1.0000    0.70500   0.96010   0.44790   Biso      1.000     H          0.1423    
         H24       1.0000    0.68290   0.86250   0.52020   Biso      1.000     H          0.126352  
         H25       1.0000    0.67290   0.02260   0.57970   Biso      1.000     H          0.258408  
         H26       1.0000    0.80550   0.26600   0.37070   Biso      1.000     H          0.149986  
         H27       1.0000    0.32710   0.34970   0.92030   Biso      1.000     H          0.25841   
         H28       1.0000    0.31710   0.17960   0.97980   Biso      1.000     H          0.126359  
         H29       1.0000    0.34970   0.02260   0.07970   Biso      1.000     H          0.258407  
         H30       1.0000    0.39900   0.31230   0.80440   Biso      1.000     H          0.146039  
         H31       1.0000    0.17960   0.86250   0.02020   Biso      1.000     H          0.12635   
         H32       1.0000    0.25510   0.96010   0.94790   Biso      1.000     H          0.142286  
         H33       1.0000    0.31230   0.91330   0.19560   Biso      1.000     H          0.146033  
         H34       1.0000    0.26600   0.80550   0.12930   Biso      1.000     H          0.149986  
         H35       1.0000    0.97740   0.32710   0.07970   Biso      1.000     H          0.258408  
         H36       1.0000    0.13750   0.31710   0.02020   Biso      1.000     H          0.126356  
         H37       1.0000    0.03990   0.29500   0.94790   Biso      1.000     H          0.142295  
         H38       1.0000    0.08670   0.39900   0.19560   Biso      1.000     H          0.146034  
         H39       1.0000    0.19450   0.46050   0.12930   Biso      1.000     H          0.149983  
         H40       1.0000    0.67290   0.65030   0.07970   Biso      1.000     H          0.25841   
         H41       1.0000    0.68290   0.82040   0.02020   Biso      1.000     H          0.126359  
         H42       1.0000    0.70500   0.74490   0.94790   Biso      1.000     H          0.142297  
         H43       1.0000    0.53950   0.73400   0.12930   Biso      1.000     H          0.149991  
         H44       1.0000    0.91330   0.31230   0.30440   Biso      1.000     H          0.146032  
         H45       1.0000    0.60100   0.68770   0.19560   Biso      1.000     H          0.146041  
         H46       1.0000    0.86250   0.17960   0.47980   Biso      1.000     H          0.12635   
         H47       1.0000    0.29500   0.25510   0.05210   Biso      1.000     H          0.142299  
         H48       1.0000    0.46050   0.26600   0.87070   Biso      1.000     H          0.149991  
         H49       1.0000    0.32710   0.97740   0.42030   Biso      1.000     H          0.258409  
         H50       1.0000    0.31710   0.13750   0.47980   Biso      1.000     H          0.126352  
         H51       1.0000    0.96010   0.25510   0.55210   Biso      1.000     H          0.142284  
         H52       1.0000    0.39900   0.08670   0.30440   Biso      1.000     H          0.146035  
         H53       1.0000    0.46050   0.19450   0.37070   Biso      1.000     H          0.149984  
         H54       1.0000    0.29500   0.03990   0.55210   Biso      1.000     H          0.142292  
         H55       1.0000    0.82040   0.68290   0.47980   Biso      1.000     H          0.126361  
         H56       1.0000    0.74490   0.70500   0.55210   Biso      1.000     H          0.142299  
         H57       1.0000    0.68770   0.60100   0.30440   Biso      1.000     H          0.146036  
         H58       1.0000    0.73400   0.53950   0.37070   Biso      1.000     H          0.149989  
         H59       1.0000    0.02260   0.34970   0.42030   Biso      1.000     H          0.258406  
         H60       1.0000    0.65030   0.67290   0.42030   Biso      1.000     H          0.25841   
         N1        1.0000    0.65270   0.60960   0.44087   Biso      1.000     N          -0.284493           
         N2        1.0000    0.60960   0.65270   0.05913   Biso      1.000     N          -0.284493           
         N3        1.0000    0.04310   0.39040   0.05913   Biso      1.000     N          -0.284493           
         N4        1.0000    0.34730   0.95690   0.05913   Biso      1.000     N          -0.284495           
         N5        1.0000    0.95690   0.34730   0.44087   Biso      1.000     N          -0.284493           
         N6        1.0000    0.39040   0.04310   0.44087   Biso      1.000     N          -0.284493           
         N7        1.0000    0.34730   0.39040   0.55913   Biso      1.000     N          -0.284494           
         N8        1.0000    0.95690   0.60960   0.94087   Biso      1.000     N          -0.284492           
         N9        1.0000    0.65270   0.04310   0.94087   Biso      1.000     N          -0.284495           
         N10       1.0000    0.04310   0.65270   0.55913   Biso      1.000     N          -0.284495           
         N11       1.0000    0.60960   0.95690   0.55913   Biso      1.000     N          -0.284492           
         N12       1.0000    0.39040   0.34730   0.94087   Biso      1.000     N          -0.284493           
         O1        1.0000    0.44010   0.24740   0.62798   Biso      1.000     O          -0.61099  
         O2        1.0000    0.59800   0.07370   0.39091   Biso      1.000     O          -0.527129           
         O3        1.0000    0.62060   0.18610   0.26997   Biso      1.000     O          -0.667889           
         O4        1.0000    0.64020   0.44990   0.55926   Biso      1.000     O          -0.682979           
         O5        1.0000    0.80730   0.55990   0.62798   Biso      1.000     O          -0.610977           
         O6        1.0000    0.47570   0.40200   0.39091   Biso      1.000     O          -0.527122           
         O7        1.0000    0.56550   0.37940   0.26997   Biso      1.000     O          -0.667867           
         O8        1.0000    0.80970   0.35980   0.55926   Biso      1.000     O          -0.683    
         O9        1.0000    0.75260   0.19270   0.62798   Biso      1.000     O          -0.610984           
         O10       1.0000    0.92630   0.52430   0.39091   Biso      1.000     O          -0.527128           
         O11       1.0000    0.19270   0.75260   0.87202   Biso      1.000     O          -0.610988           
         O12       1.0000    0.35980   0.80970   0.94074   Biso      1.000     O          -0.682983           
         O13       1.0000    0.52430   0.92630   0.10909   Biso      1.000     O          -0.527132           
         O14       1.0000    0.43450   0.81390   0.23003   Biso      1.000     O          -0.667888           
         O15       1.0000    0.19030   0.55010   0.94074   Biso      1.000     O          -0.682976           
         O16       1.0000    0.24740   0.44010   0.87202   Biso      1.000     O          -0.610984           
         O17       1.0000    0.07370   0.59800   0.10909   Biso      1.000     O          -0.527124           
         O18       1.0000    0.55990   0.80730   0.87202   Biso      1.000     O          -0.610972           
         O19       1.0000    0.18610   0.62060   0.23003   Biso      1.000     O          -0.667868           
         O20       1.0000    0.44990   0.64020   0.94074   Biso      1.000     O          -0.682995           
         O21       1.0000    0.55010   0.19030   0.55926   Biso      1.000     O          -0.682977           
         O22       1.0000    0.81390   0.43450   0.26997   Biso      1.000     O          -0.667884           
         O23       1.0000    0.62060   0.43450   0.76997   Biso      1.000     O          -0.667872           
         O24       1.0000    0.40200   0.92630   0.60909   Biso      1.000     O          -0.527128           
         O25       1.0000    0.44010   0.19270   0.12798   Biso      1.000     O          -0.61097  
         O26       1.0000    0.40200   0.47570   0.10909   Biso      1.000     O          -0.527124           
         O27       1.0000    0.44990   0.80970   0.44074   Biso      1.000     O          -0.682974           
         O28       1.0000    0.55990   0.75260   0.37202   Biso      1.000     O          -0.610987           
         O29       1.0000    0.37940   0.81390   0.73003   Biso      1.000     O          -0.667887           
         O30       1.0000    0.35980   0.55010   0.44074   Biso      1.000     O          -0.682981           
         O31       1.0000    0.19270   0.44010   0.37202   Biso      1.000     O          -0.610986           
         O32       1.0000    0.52430   0.59800   0.60909   Biso      1.000     O          -0.527126           
         O33       1.0000    0.43450   0.62060   0.73003   Biso      1.000     O          -0.667863           
         O34       1.0000    0.19030   0.64020   0.44074   Biso      1.000     O          -0.682999           
         O35       1.0000    0.24740   0.80730   0.37202   Biso      1.000     O          -0.610985           
         O36       1.0000    0.07370   0.47570   0.60909   Biso      1.000     O          -0.527132           
         O37       1.0000    0.18610   0.56550   0.73003   Biso      1.000     O          -0.667884           
         O38       1.0000    0.64020   0.19030   0.05926   Biso      1.000     O          -0.682979           
         O39       1.0000    0.80730   0.24740   0.12798   Biso      1.000     O          -0.61098  
         O40       1.0000    0.47570   0.07370   0.89091   Biso      1.000     O          -0.527129           
         O41       1.0000    0.56550   0.18610   0.76997   Biso      1.000     O          -0.667884           
         O42       1.0000    0.80970   0.44990   0.05926   Biso      1.000     O          -0.68298  
         O43       1.0000    0.75260   0.55990   0.12798   Biso      1.000     O          -0.610991           
         O44       1.0000    0.92630   0.40200   0.89091   Biso      1.000     O          -0.527126           
         O45       1.0000    0.81390   0.37940   0.76997   Biso      1.000     O          -0.667868           
         O46       1.0000    0.55010   0.35980   0.05926   Biso      1.000     O          -0.682995           
         O47       1.0000    0.59800   0.52430   0.89091   Biso      1.000     O          -0.527123           
         O48       1.0000    0.37940   0.56550   0.23003   Biso      1.000     O          -0.667872 