
##########################################################################
#               Crystallographic Information Format file
#               Produced by PyCifRW module
#
#  This is a CIF file.  CIF has been adopted by the International
#  Union of Crystallography as the standard for data archiving and
#  transmission.
#
#  For information on this file format, follow the CIF links at
#  http://www.iucr.org
##########################################################################

data_image0

_cell_length_a                          13.4567
_cell_length_b                          13.4567
_cell_length_c                          14.6982
_cell_angle_alpha                       90
_cell_angle_beta                        90
_cell_angle_gamma                       120
_symmetry_space_group_name_H-M          'P 1'
_symmetry_int_tables_number             1
loop_
  _symmetry_equiv_pos_as_xyz
         'x, y, z' 
loop_
  _atom_site_label
  _atom_site_occupancy
  _atom_site_fract_x
  _atom_site_fract_y
  _atom_site_fract_z
  _atom_site_thermal_displace_type
  _atom_site_B_iso_or_equiv
  _atom_site_type_symbol
  _atom_site_charge
         C1        1.0000    0.66640   0.55290   0.13830   Biso      1.000     C          -0.241725           
         C2        1.0000    0.35260   0.25520   0.49040   Biso      1.000     C          -0.22472399999999998          
         C3        1.0000    0.56170   0.12320   0.15850   Biso      1.000     C          0.685437  
         C4        1.0000    0.44710   0.11350   0.13830   Biso      1.000     C          -0.24172800000000003          
         C5        1.0000    0.35260   0.09740   0.99040   Biso      1.000     C          -0.224714           
         C6        1.0000    0.45380   0.18210   0.93250   Biso      1.000     C          0.644388  
         C7        1.0000    0.56150   0.43830   0.15850   Biso      1.000     C          0.685459  
         C8        1.0000    0.74480   0.64740   0.99040   Biso      1.000     C          -0.224726           
         C9        1.0000    0.72830   0.54620   0.93250   Biso      1.000     C          0.644382  
         C10       1.0000    0.87680   0.43850   0.15850   Biso      1.000     C          0.685485  
         C11       1.0000    0.88650   0.33360   0.13830   Biso      1.000     C          -0.24175700000000003          
         C12       1.0000    0.90260   0.25520   0.99040   Biso      1.000     C          -0.22473800000000002          
         C13       1.0000    0.44710   0.33360   0.63830   Biso      1.000     C          -0.241745           
         C14       1.0000    0.81790   0.27170   0.93250   Biso      1.000     C          0.64439   
         C15       1.0000    0.33360   0.88650   0.36170   Biso      1.000     C          -0.24172  
         C16       1.0000    0.25520   0.90260   0.50960   Biso      1.000     C          -0.224735           
         C17       1.0000    0.27170   0.81790   0.56750   Biso      1.000     C          0.644401  
         C18       1.0000    0.12320   0.56170   0.34150   Biso      1.000     C          0.685442  
         C19       1.0000    0.11350   0.44710   0.36170   Biso      1.000     C          -0.241727           
         C20       1.0000    0.09740   0.35260   0.50960   Biso      1.000     C          -0.224717           
         C21       1.0000    0.18210   0.45380   0.56750   Biso      1.000     C          0.644414  
         C22       1.0000    0.43830   0.56150   0.34150   Biso      1.000     C          0.685472  
         C23       1.0000    0.55290   0.66640   0.36170   Biso      1.000     C          -0.24174600000000002          
         C24       1.0000    0.64740   0.74480   0.50960   Biso      1.000     C          -0.224725           
         C25       1.0000    0.54620   0.72830   0.56750   Biso      1.000     C          0.644368  
         C26       1.0000    0.43850   0.87680   0.34150   Biso      1.000     C          0.685487  
         C27       1.0000    0.56170   0.43850   0.65850   Biso      1.000     C          0.685471  
         C28       1.0000    0.45380   0.27170   0.43250   Biso      1.000     C          0.644368  
         C29       1.0000    0.90260   0.64740   0.49040   Biso      1.000     C          -0.224717           
         C30       1.0000    0.43830   0.87680   0.84150   Biso      1.000     C          0.685437  
         C31       1.0000    0.55290   0.88650   0.86170   Biso      1.000     C          -0.241729           
         C32       1.0000    0.64740   0.90260   0.00960   Biso      1.000     C          -0.224714           
         C33       1.0000    0.81790   0.54620   0.43250   Biso      1.000     C          0.644414  
         C34       1.0000    0.43850   0.56170   0.84150   Biso      1.000     C          0.685459  
         C35       1.0000    0.33360   0.44710   0.86170   Biso      1.000     C          -0.241725           
         C36       1.0000    0.25520   0.35260   0.00960   Biso      1.000     C          -0.224726           
         C37       1.0000    0.27170   0.45380   0.06750   Biso      1.000     C          0.644382  
         C38       1.0000    0.12320   0.56150   0.84150   Biso      1.000     C          0.685485  
         C39       1.0000    0.54620   0.81790   0.06750   Biso      1.000     C          0.644388  
         C40       1.0000    0.09740   0.74480   0.00960   Biso      1.000     C          -0.22473800000000002          
         C41       1.0000    0.18210   0.72830   0.06750   Biso      1.000     C          0.64439   
         C42       1.0000    0.56150   0.12320   0.65850   Biso      1.000     C          0.685493  
         C43       1.0000    0.66640   0.11350   0.63830   Biso      1.000     C          -0.24172600000000002          
         C44       1.0000    0.74480   0.09740   0.49040   Biso      1.000     C          -0.22473400000000002          
         C45       1.0000    0.72830   0.18210   0.43250   Biso      1.000     C          0.644401  
         C46       1.0000    0.88650   0.55290   0.63830   Biso      1.000     C          -0.24173000000000003          
         C47       1.0000    0.87680   0.43830   0.65850   Biso      1.000     C          0.685445  
         C48       1.0000    0.11350   0.66640   0.86170   Biso      1.000     C          -0.241756           
         Cu1       1.0000    0.50000   0.50000   0.50000   Biso      1.000     Cu          0.7866    
         Cu2       1.0000    0.00000   0.50000   0.50000   Biso      1.000     Cu          0.786021  
         Cu3       1.0000    0.00000   0.50000   0.00000   Biso      1.000     Cu          0.786767  
         Cu4       1.0000    0.50000   0.50000   0.00000   Biso      1.000     Cu          0.7865260000000001  
         Cu5       1.0000    0.50000   0.00000   0.00000   Biso      1.000     Cu          0.78662   
         Cu6       1.0000    0.50000   0.00000   0.50000   Biso      1.000     Cu          0.787083  
         H1        1.0000    0.26860   0.45820   0.87210   Biso      1.000     H          0.146209  
         H2        1.0000    0.54180   0.81040   0.87210   Biso      1.000     H          0.146232  
         H3        1.0000    0.60250   0.91870   0.80910   Biso      1.000     H          0.143308  
         H4        1.0000    0.70610   0.96030   0.04850   Biso      1.000     H          0.141855  
         H5        1.0000    0.68030   0.86240   0.97820   Biso      1.000     H          0.126326  
         H6        1.0000    0.67280   0.02490   0.92280   Biso      1.000     H          0.258601  
         H7        1.0000    0.31620   0.39750   0.80910   Biso      1.000     H          0.14332   
         H8        1.0000    0.25420   0.29390   0.04850   Biso      1.000     H          0.14185799999999998           
         H9        1.0000    0.81790   0.68030   0.02180   Biso      1.000     H          0.12630999999999998           
         H10       1.0000    0.74580   0.70610   0.95150   Biso      1.000     H          0.14185799999999998           
         H11       1.0000    0.18210   0.31970   0.97820   Biso      1.000     H          0.12631099999999998           
         H12       1.0000    0.64790   0.67280   0.07720   Biso      1.000     H          0.25859699999999997           
         H13       1.0000    0.81040   0.26860   0.12790   Biso      1.000     H          0.146225  
         H14       1.0000    0.91870   0.31620   0.19090   Biso      1.000     H          0.14337   
         H15       1.0000    0.96030   0.25420   0.95150   Biso      1.000     H          0.141897  
         H16       1.0000    0.86240   0.18210   0.02180   Biso      1.000     H          0.126348  
         H17       1.0000    0.02490   0.35210   0.07720   Biso      1.000     H          0.258639  
         H18       1.0000    0.26860   0.81040   0.37210   Biso      1.000     H          0.14633800000000002           
         H19       1.0000    0.31620   0.91870   0.30910   Biso      1.000     H          0.143429  
         H20       1.0000    0.25420   0.96030   0.54850   Biso      1.000     H          0.14192000000000002           
         H21       1.0000    0.18210   0.86240   0.47820   Biso      1.000     H          0.126459  
         H22       1.0000    0.35210   0.02490   0.42280   Biso      1.000     H          0.25869699999999995           
         H23       1.0000    0.18960   0.45820   0.37210   Biso      1.000     H          0.146151  
         H24       1.0000    0.08130   0.39750   0.30910   Biso      1.000     H          0.14323699999999998           
         H25       1.0000    0.03970   0.29390   0.54850   Biso      1.000     H          0.141799  
         H26       1.0000    0.13760   0.31970   0.47820   Biso      1.000     H          0.126221  
         H27       1.0000    0.97510   0.32720   0.42280   Biso      1.000     H          0.25850500000000004           
         H28       1.0000    0.54180   0.73140   0.37210   Biso      1.000     H          0.146179  
         H29       1.0000    0.60250   0.68380   0.30910   Biso      1.000     H          0.14333800000000002           
         H30       1.0000    0.70610   0.74580   0.54850   Biso      1.000     H          0.14189100000000002           
         H31       1.0000    0.68030   0.81790   0.47820   Biso      1.000     H          0.126297  
         H32       1.0000    0.67280   0.64790   0.42280   Biso      1.000     H          0.258631  
         H33       1.0000    0.68380   0.60250   0.19090   Biso      1.000     H          0.14332   
         H34       1.0000    0.32720   0.97510   0.07720   Biso      1.000     H          0.258601  
         H35       1.0000    0.73140   0.54180   0.12790   Biso      1.000     H          0.146208  
         H36       1.0000    0.31970   0.13760   0.02180   Biso      1.000     H          0.126327  
         H37       1.0000    0.35210   0.32720   0.92280   Biso      1.000     H          0.25859699999999997           
         H38       1.0000    0.18960   0.73140   0.87210   Biso      1.000     H          0.146225  
         H39       1.0000    0.08130   0.68380   0.80910   Biso      1.000     H          0.14337   
         H40       1.0000    0.03970   0.74580   0.04850   Biso      1.000     H          0.141898  
         H41       1.0000    0.13760   0.81790   0.97820   Biso      1.000     H          0.126349  
         H42       1.0000    0.97510   0.64790   0.92280   Biso      1.000     H          0.258639  
         H43       1.0000    0.73140   0.18960   0.62790   Biso      1.000     H          0.14633800000000002           
         H44       1.0000    0.68380   0.08130   0.69090   Biso      1.000     H          0.143429  
         H45       1.0000    0.74580   0.03970   0.45150   Biso      1.000     H          0.14191900000000002           
         H46       1.0000    0.81790   0.13760   0.52180   Biso      1.000     H          0.126459  
         H47       1.0000    0.64790   0.97510   0.57720   Biso      1.000     H          0.25869699999999995           
         H48       1.0000    0.91870   0.60250   0.69090   Biso      1.000     H          0.143236  
         H49       1.0000    0.81040   0.54180   0.62790   Biso      1.000     H          0.146151  
         H50       1.0000    0.86240   0.68030   0.52180   Biso      1.000     H          0.126221  
         H51       1.0000    0.02490   0.67280   0.57720   Biso      1.000     H          0.25850500000000004           
         H52       1.0000    0.45820   0.26860   0.62790   Biso      1.000     H          0.146179  
         H53       1.0000    0.39750   0.31620   0.69090   Biso      1.000     H          0.14333800000000002           
         H54       1.0000    0.29390   0.25420   0.45150   Biso      1.000     H          0.14188900000000002           
         H55       1.0000    0.31970   0.18210   0.52180   Biso      1.000     H          0.126296  
         H56       1.0000    0.32720   0.35210   0.57720   Biso      1.000     H          0.258631  
         H57       1.0000    0.45820   0.18960   0.12790   Biso      1.000     H          0.146232  
         H58       1.0000    0.39750   0.08130   0.19090   Biso      1.000     H          0.143307  
         H59       1.0000    0.29390   0.03970   0.95150   Biso      1.000     H          0.141855  
         H60       1.0000    0.96030   0.70610   0.45150   Biso      1.000     H          0.141799  
         N1        1.0000    0.38990   0.04090   0.05810   Biso      1.000     N          -0.28626999999999997          
         N2        1.0000    0.34900   0.95910   0.44190   Biso      1.000     N          -0.286118           
         N3        1.0000    0.65100   0.61010   0.05810   Biso      1.000     N          -0.2863   
         N4        1.0000    0.95910   0.34900   0.05810   Biso      1.000     N          -0.286179           
         N5        1.0000    0.04090   0.38990   0.44190   Biso      1.000     N          -0.286443           
         N6        1.0000    0.38990   0.34900   0.55810   Biso      1.000     N          -0.286249           
         N7        1.0000    0.61010   0.95910   0.94190   Biso      1.000     N          -0.28626999999999997          
         N8        1.0000    0.34900   0.38990   0.94190   Biso      1.000     N          -0.2863   
         N9        1.0000    0.04090   0.65100   0.94190   Biso      1.000     N          -0.286179           
         N10       1.0000    0.65100   0.04090   0.55810   Biso      1.000     N          -0.286117           
         N11       1.0000    0.61010   0.65100   0.44190   Biso      1.000     N          -0.286249           
         N12       1.0000    0.95910   0.61010   0.55810   Biso      1.000     N          -0.286443           
         Nd1       1.0000    0.33333   0.66666   0.66822   Biso      1.000     Nd          2.089328  
         Nd2       1.0000    0.33333   0.66666   0.16822   Biso      1.000     Nd          2.089357  
         Nd3       1.0000    0.66667   0.33334   0.33178   Biso      1.000     Nd          2.089327  
         Nd4       1.0000    0.66667   0.33334   0.83178   Biso      1.000     Nd          2.089357  
         O1        1.0000    0.44090   0.19820   0.37500   Biso      1.000     O          -0.617722           
         O2        1.0000    0.59750   0.52440   0.60640   Biso      1.000     O          -0.532567           
         O3        1.0000    0.61470   0.43510   0.72620   Biso      1.000     O          -0.660841           
         O4        1.0000    0.81450   0.45110   0.44350   Biso      1.000     O          -0.672079           
         O5        1.0000    0.75730   0.55910   0.37500   Biso      1.000     O          -0.6178130000000001           
         O6        1.0000    0.92690   0.40250   0.60640   Biso      1.000     O          -0.5329010000000001           
         O7        1.0000    0.82040   0.38530   0.72620   Biso      1.000     O          -0.66118  
         O8        1.0000    0.63660   0.18550   0.44350   Biso      1.000     O          -0.672201           
         O9        1.0000    0.80180   0.24270   0.37500   Biso      1.000     O          -0.6174649999999999           
         O10       1.0000    0.47560   0.07310   0.60640   Biso      1.000     O          -0.532358           
         O11       1.0000    0.18550   0.63660   0.05650   Biso      1.000     O          -0.67211  
         O12       1.0000    0.54890   0.36340   0.44350   Biso      1.000     O          -0.67205  
         O13       1.0000    0.24270   0.80180   0.12500   Biso      1.000     O          -0.617654           
         O14       1.0000    0.07310   0.47560   0.89360   Biso      1.000     O          -0.5325489999999999           
         O15       1.0000    0.17960   0.56490   0.77380   Biso      1.000     O          -0.66075  
         O16       1.0000    0.36340   0.54890   0.05650   Biso      1.000     O          -0.672104           
         O17       1.0000    0.19820   0.44090   0.12500   Biso      1.000     O          -0.6176659999999999           
         O18       1.0000    0.52440   0.59750   0.89360   Biso      1.000     O          -0.53265  
         O19       1.0000    0.43510   0.61470   0.77380   Biso      1.000     O          -0.660921           
         O20       1.0000    0.45110   0.81450   0.05650   Biso      1.000     O          -0.672149           
         O21       1.0000    0.55910   0.75730   0.12500   Biso      1.000     O          -0.617677           
         O22       1.0000    0.56490   0.17960   0.72620   Biso      1.000     O          -0.660572           
         O23       1.0000    0.61470   0.17960   0.22620   Biso      1.000     O          -0.6608729999999999           
         O24       1.0000    0.59750   0.07310   0.10640   Biso      1.000     O          -0.5326350000000001           
         O25       1.0000    0.44090   0.24270   0.87500   Biso      1.000     O          -0.617678           
         O26       1.0000    0.45110   0.63660   0.55650   Biso      1.000     O          -0.67205  
         O27       1.0000    0.55910   0.80180   0.62500   Biso      1.000     O          -0.617722           
         O28       1.0000    0.40250   0.47560   0.39360   Biso      1.000     O          -0.532567           
         O29       1.0000    0.38530   0.56490   0.27380   Biso      1.000     O          -0.660842           
         O30       1.0000    0.18550   0.54890   0.55650   Biso      1.000     O          -0.672079           
         O31       1.0000    0.24270   0.44090   0.62500   Biso      1.000     O          -0.6178130000000001           
         O32       1.0000    0.07310   0.59750   0.39360   Biso      1.000     O          -0.5329010000000001           
         O33       1.0000    0.17960   0.61470   0.27380   Biso      1.000     O          -0.66118  
         O34       1.0000    0.36340   0.81450   0.55650   Biso      1.000     O          -0.672201           
         O35       1.0000    0.19820   0.75730   0.62500   Biso      1.000     O          -0.6174649999999999           
         O36       1.0000    0.52440   0.92690   0.39360   Biso      1.000     O          -0.532357           
         O37       1.0000    0.43510   0.82040   0.27380   Biso      1.000     O          -0.660572           
         O38       1.0000    0.81450   0.36340   0.94350   Biso      1.000     O          -0.6721090000000001           
         O39       1.0000    0.75730   0.19820   0.87500   Biso      1.000     O          -0.6176550000000001           
         O40       1.0000    0.92690   0.52440   0.10640   Biso      1.000     O          -0.5325489999999999           
         O41       1.0000    0.82040   0.43510   0.22620   Biso      1.000     O          -0.66075  
         O42       1.0000    0.63660   0.45110   0.94350   Biso      1.000     O          -0.672104           
         O43       1.0000    0.80180   0.55910   0.87500   Biso      1.000     O          -0.6176659999999999           
         O44       1.0000    0.47560   0.40250   0.10640   Biso      1.000     O          -0.5326489999999999           
         O45       1.0000    0.56490   0.38530   0.22620   Biso      1.000     O          -0.660921           
         O46       1.0000    0.54890   0.18550   0.94350   Biso      1.000     O          -0.672149           
         O47       1.0000    0.40250   0.92690   0.89360   Biso      1.000     O          -0.5326350000000001           
         O48       1.0000    0.38530   0.82040   0.77380   Biso      1.000     O          -0.6608729999999999 