
##########################################################################
#               Crystallographic Information Format file
#               Produced by PyCifRW module
#
#  This is a CIF file.  CIF has been adopted by the International
#  Union of Crystallography as the standard for data archiving and
#  transmission.
#
#  For information on this file format, follow the CIF links at
#  http://www.iucr.org
##########################################################################

data_image0

_cell_length_a                          13.4105
_cell_length_b                          13.4105
_cell_length_c                          14.5808
_cell_angle_alpha                       90
_cell_angle_beta                        90
_cell_angle_gamma                       120
_symmetry_space_group_name_H-M          'P 1'
_symmetry_int_tables_number             1
loop_
  _symmetry_equiv_pos_as_xyz
         'x, y, z' 
loop_
  _atom_site_label
  _atom_site_occupancy
  _atom_site_fract_x
  _atom_site_fract_y
  _atom_site_fract_z
  _atom_site_thermal_displace_type
  _atom_site_B_iso_or_equiv
  _atom_site_type_symbol
  _atom_site_charge
         C1        1.0000    0.88480   0.33270   0.13890   Biso      1.000     C          -0.244664           
         C2        1.0000    0.56250   0.43820   0.15920   Biso      1.000     C          0.687708  
         C3        1.0000    0.66730   0.55210   0.13890   Biso      1.000     C          -0.244666           
         C4        1.0000    0.74540   0.64730   0.98970   Biso      1.000     C          -0.225214           
         C5        1.0000    0.72910   0.54590   0.93190   Biso      1.000     C          0.64451   
         C6        1.0000    0.87570   0.43750   0.15920   Biso      1.000     C          0.687714  
         C7        1.0000    0.90190   0.25460   0.98970   Biso      1.000     C          -0.225214           
         C8        1.0000    0.81680   0.27090   0.93190   Biso      1.000     C          0.644517  
         C9        1.0000    0.56180   0.12430   0.15920   Biso      1.000     C          0.687703  
         C10       1.0000    0.44790   0.11520   0.13890   Biso      1.000     C          -0.24466  
         C11       1.0000    0.72910   0.18320   0.43190   Biso      1.000     C          0.644509  
         C12       1.0000    0.35270   0.09810   0.98970   Biso      1.000     C          -0.22521799999999997          
         C13       1.0000    0.12430   0.56180   0.34080   Biso      1.000     C          0.68771   
         C14       1.0000    0.11520   0.44790   0.36110   Biso      1.000     C          -0.244664           
         C15       1.0000    0.09810   0.35270   0.51030   Biso      1.000     C          -0.22521599999999997          
         C16       1.0000    0.18320   0.45410   0.56810   Biso      1.000     C          0.64451   
         C17       1.0000    0.43820   0.56250   0.34080   Biso      1.000     C          0.687715  
         C18       1.0000    0.55210   0.66730   0.36110   Biso      1.000     C          -0.24466300000000002          
         C19       1.0000    0.54590   0.72910   0.56810   Biso      1.000     C          0.644518  
         C20       1.0000    0.43750   0.87570   0.34080   Biso      1.000     C          0.687704  
         C21       1.0000    0.33270   0.88480   0.36110   Biso      1.000     C          -0.24466100000000002          
         C22       1.0000    0.45410   0.18320   0.93190   Biso      1.000     C          0.644509  
         C23       1.0000    0.25460   0.90190   0.51030   Biso      1.000     C          -0.22521599999999997          
         C24       1.0000    0.74540   0.09810   0.48970   Biso      1.000     C          -0.225217           
         C25       1.0000    0.56250   0.12430   0.65920   Biso      1.000     C          0.687703  
         C26       1.0000    0.43750   0.56180   0.84080   Biso      1.000     C          0.687708  
         C27       1.0000    0.33270   0.44790   0.86110   Biso      1.000     C          -0.244666           
         C28       1.0000    0.25460   0.35270   0.01030   Biso      1.000     C          -0.225215           
         C29       1.0000    0.27090   0.45410   0.06810   Biso      1.000     C          0.64451   
         C30       1.0000    0.12430   0.56250   0.84080   Biso      1.000     C          0.687714  
         C31       1.0000    0.11520   0.66730   0.86110   Biso      1.000     C          -0.24466300000000002          
         C32       1.0000    0.09810   0.74540   0.01030   Biso      1.000     C          -0.225217           
         C33       1.0000    0.18320   0.72910   0.06810   Biso      1.000     C          0.644518  
         C34       1.0000    0.43820   0.87570   0.84080   Biso      1.000     C          0.687704  
         C35       1.0000    0.66730   0.11520   0.63890   Biso      1.000     C          -0.244658           
         C36       1.0000    0.55210   0.88480   0.86110   Biso      1.000     C          -0.24465900000000002          
         C37       1.0000    0.54590   0.81680   0.06810   Biso      1.000     C          0.644509  
         C38       1.0000    0.87570   0.43820   0.65920   Biso      1.000     C          0.687708  
         C39       1.0000    0.88480   0.55210   0.63890   Biso      1.000     C          -0.244664           
         C40       1.0000    0.90190   0.64730   0.48970   Biso      1.000     C          -0.225215           
         C41       1.0000    0.81680   0.54590   0.43190   Biso      1.000     C          0.644509  
         C42       1.0000    0.56180   0.43750   0.65920   Biso      1.000     C          0.687715  
         C43       1.0000    0.44790   0.33270   0.63890   Biso      1.000     C          -0.244664           
         C44       1.0000    0.35270   0.25460   0.48970   Biso      1.000     C          -0.225217           
         C45       1.0000    0.45410   0.27090   0.43190   Biso      1.000     C          0.644518  
         C46       1.0000    0.64730   0.90190   0.01030   Biso      1.000     C          -0.225214           
         C47       1.0000    0.27090   0.81680   0.56810   Biso      1.000     C          0.644509  
         C48       1.0000    0.64730   0.74540   0.51030   Biso      1.000     C          -0.225215           
         Cu1       1.0000    0.50000   0.00000   0.50000   Biso      1.000     Cu          0.7834720000000001  
         Cu2       1.0000    0.50000   0.50000   0.50000   Biso      1.000     Cu          0.783466  
         Cu3       1.0000    0.00000   0.50000   0.50000   Biso      1.000     Cu          0.783467  
         Cu4       1.0000    0.50000   0.00000   0.00000   Biso      1.000     Cu          0.783474  
         Cu5       1.0000    0.00000   0.50000   0.00000   Biso      1.000     Cu          0.783469  
         Cu6       1.0000    0.50000   0.50000   0.00000   Biso      1.000     Cu          0.783469  
         H1        1.0000    0.39810   0.31480   0.69200   Biso      1.000     H          0.146033  
         H2        1.0000    0.19160   0.45950   0.37190   Biso      1.000     H          0.14949300000000001           
         H3        1.0000    0.32750   0.97630   0.07780   Biso      1.000     H          0.259342  
         H4        1.0000    0.31900   0.13800   0.02090   Biso      1.000     H          0.12703599999999998           
         H5        1.0000    0.29430   0.03990   0.95020   Biso      1.000     H          0.142323  
         H6        1.0000    0.39810   0.08330   0.19200   Biso      1.000     H          0.146033  
         H7        1.0000    0.86200   0.18100   0.02090   Biso      1.000     H          0.127028  
         H8        1.0000    0.02370   0.35120   0.07780   Biso      1.000     H          0.259336  
         H9        1.0000    0.08330   0.39810   0.30800   Biso      1.000     H          0.146029  
         H10       1.0000    0.96010   0.25440   0.95020   Biso      1.000     H          0.142307  
         H11       1.0000    0.91670   0.31480   0.19200   Biso      1.000     H          0.146026  
         H12       1.0000    0.45950   0.19160   0.12810   Biso      1.000     H          0.14949500000000002           
         H13       1.0000    0.03990   0.29430   0.54980   Biso      1.000     H          0.142321  
         H14       1.0000    0.29430   0.25440   0.45020   Biso      1.000     H          0.142319  
         H15       1.0000    0.97630   0.32750   0.42220   Biso      1.000     H          0.259341  
         H16       1.0000    0.80840   0.26790   0.12810   Biso      1.000     H          0.14949500000000002           
         H17       1.0000    0.60190   0.68520   0.30800   Biso      1.000     H          0.14603   
         H18       1.0000    0.70570   0.74560   0.54980   Biso      1.000     H          0.142315  
         H19       1.0000    0.68100   0.81900   0.47910   Biso      1.000     H          0.12703299999999998           
         H20       1.0000    0.67250   0.64880   0.42220   Biso      1.000     H          0.259338  
         H21       1.0000    0.26790   0.80840   0.37190   Biso      1.000     H          0.14949500000000002           
         H22       1.0000    0.31480   0.91670   0.30800   Biso      1.000     H          0.146037  
         H23       1.0000    0.25440   0.96010   0.54980   Biso      1.000     H          0.142321  
         H24       1.0000    0.18100   0.86200   0.47910   Biso      1.000     H          0.12703399999999998           
         H25       1.0000    0.35120   0.02370   0.42220   Biso      1.000     H          0.259341  
         H26       1.0000    0.13800   0.31900   0.47910   Biso      1.000     H          0.12703499999999998           
         H27       1.0000    0.64880   0.67250   0.07780   Biso      1.000     H          0.259337  
         H28       1.0000    0.54050   0.73210   0.37190   Biso      1.000     H          0.14949500000000002           
         H29       1.0000    0.74560   0.70570   0.95020   Biso      1.000     H          0.142307  
         H30       1.0000    0.03990   0.74560   0.04980   Biso      1.000     H          0.14232   
         H31       1.0000    0.13800   0.81900   0.97910   Biso      1.000     H          0.12703299999999998           
         H32       1.0000    0.97630   0.64880   0.92220   Biso      1.000     H          0.259338  
         H33       1.0000    0.54050   0.80840   0.87190   Biso      1.000     H          0.14949400000000002           
         H34       1.0000    0.60190   0.91670   0.80800   Biso      1.000     H          0.14603   
         H35       1.0000    0.70570   0.96010   0.04980   Biso      1.000     H          0.142315  
         H36       1.0000    0.08330   0.68520   0.80800   Biso      1.000     H          0.146028  
         H37       1.0000    0.68100   0.86200   0.97910   Biso      1.000     H          0.127029  
         H38       1.0000    0.91670   0.60190   0.69200   Biso      1.000     H          0.146025  
         H39       1.0000    0.96010   0.70570   0.45020   Biso      1.000     H          0.142315  
         H40       1.0000    0.86200   0.68100   0.52090   Biso      1.000     H          0.127029  
         H41       1.0000    0.02370   0.67250   0.57780   Biso      1.000     H          0.259339  
         H42       1.0000    0.45950   0.26790   0.62810   Biso      1.000     H          0.149496  
         H43       1.0000    0.81900   0.68100   0.02090   Biso      1.000     H          0.127028  
         H44       1.0000    0.67250   0.02370   0.92220   Biso      1.000     H          0.25934   
         H45       1.0000    0.19160   0.73210   0.87190   Biso      1.000     H          0.14949500000000002           
         H46       1.0000    0.80840   0.54050   0.62810   Biso      1.000     H          0.149492  
         H47       1.0000    0.18100   0.31900   0.97910   Biso      1.000     H          0.12703   
         H48       1.0000    0.25440   0.29430   0.04980   Biso      1.000     H          0.14231300000000002           
         H49       1.0000    0.31480   0.39810   0.80800   Biso      1.000     H          0.146028  
         H50       1.0000    0.26790   0.45950   0.87190   Biso      1.000     H          0.14949300000000001           
         H51       1.0000    0.31900   0.18100   0.52090   Biso      1.000     H          0.12703299999999998           
         H52       1.0000    0.32750   0.35120   0.57780   Biso      1.000     H          0.259339  
         H53       1.0000    0.73210   0.19160   0.62810   Biso      1.000     H          0.14949400000000002           
         H54       1.0000    0.68520   0.08330   0.69200   Biso      1.000     H          0.146032  
         H55       1.0000    0.74560   0.03990   0.45020   Biso      1.000     H          0.142322  
         H56       1.0000    0.35120   0.32750   0.92220   Biso      1.000     H          0.259339  
         H57       1.0000    0.81900   0.13800   0.52090   Biso      1.000     H          0.12703399999999998           
         H58       1.0000    0.64880   0.97630   0.57780   Biso      1.000     H          0.259341  
         H59       1.0000    0.73210   0.54050   0.12810   Biso      1.000     H          0.149491  
         H60       1.0000    0.68520   0.60190   0.19200   Biso      1.000     H          0.14602300000000001           
         N1        1.0000    0.65150   0.04190   0.55820   Biso      1.000     N          -0.286405           
         N2        1.0000    0.39040   0.34850   0.55820   Biso      1.000     N          -0.286407           
         N3        1.0000    0.04190   0.65150   0.94180   Biso      1.000     N          -0.286407           
         N4        1.0000    0.60960   0.95810   0.94180   Biso      1.000     N          -0.286406           
         N5        1.0000    0.65150   0.60960   0.05820   Biso      1.000     N          -0.286407           
         N6        1.0000    0.34850   0.39040   0.94180   Biso      1.000     N          -0.286407           
         N7        1.0000    0.95810   0.60960   0.55820   Biso      1.000     N          -0.286406           
         N8        1.0000    0.95810   0.34850   0.05820   Biso      1.000     N          -0.286407           
         N9        1.0000    0.34850   0.95810   0.44180   Biso      1.000     N          -0.286405           
         N10       1.0000    0.04190   0.39040   0.44180   Biso      1.000     N          -0.286406           
         N11       1.0000    0.60960   0.65150   0.44180   Biso      1.000     N          -0.286406           
         N12       1.0000    0.39040   0.04190   0.05820   Biso      1.000     N          -0.286407           
         O1        1.0000    0.47560   0.07350   0.60710   Biso      1.000     O          -0.5305449999999999           
         O2        1.0000    0.80350   0.24470   0.37390   Biso      1.000     O          -0.62216  
         O3        1.0000    0.56460   0.38320   0.22710   Biso      1.000     O          -0.665042           
         O4        1.0000    0.63770   0.18690   0.44300   Biso      1.000     O          -0.6710520000000001           
         O5        1.0000    0.81310   0.45080   0.44300   Biso      1.000     O          -0.6710510000000001           
         O6        1.0000    0.56460   0.18140   0.72710   Biso      1.000     O          -0.665026           
         O7        1.0000    0.54920   0.36230   0.44300   Biso      1.000     O          -0.671056           
         O8        1.0000    0.44120   0.19650   0.37390   Biso      1.000     O          -0.622162           
         O9        1.0000    0.59790   0.52440   0.60710   Biso      1.000     O          -0.530546           
         O10       1.0000    0.61680   0.43540   0.72710   Biso      1.000     O          -0.665043           
         O11       1.0000    0.75530   0.55880   0.37390   Biso      1.000     O          -0.622155           
         O12       1.0000    0.36230   0.54920   0.05700   Biso      1.000     O          -0.6710520000000001           
         O13       1.0000    0.81860   0.38320   0.72710   Biso      1.000     O          -0.665035           
         O14       1.0000    0.45080   0.81310   0.05700   Biso      1.000     O          -0.671056           
         O15       1.0000    0.55880   0.75530   0.12610   Biso      1.000     O          -0.622165           
         O16       1.0000    0.40210   0.92650   0.89290   Biso      1.000     O          -0.5305449999999999           
         O17       1.0000    0.38320   0.81860   0.77290   Biso      1.000     O          -0.66503  
         O18       1.0000    0.18690   0.63770   0.05700   Biso      1.000     O          -0.671057           
         O19       1.0000    0.24470   0.80350   0.12610   Biso      1.000     O          -0.622166           
         O20       1.0000    0.19650   0.44120   0.12610   Biso      1.000     O          -0.62216  
         O21       1.0000    0.18140   0.56460   0.77290   Biso      1.000     O          -0.66505  
         O22       1.0000    0.07350   0.47560   0.89290   Biso      1.000     O          -0.530547           
         O23       1.0000    0.47560   0.40210   0.10710   Biso      1.000     O          -0.5305489999999999           
         O24       1.0000    0.92650   0.40210   0.60710   Biso      1.000     O          -0.5305479999999999           
         O25       1.0000    0.80350   0.55880   0.87390   Biso      1.000     O          -0.622162           
         O26       1.0000    0.43540   0.61680   0.77290   Biso      1.000     O          -0.665041           
         O27       1.0000    0.81860   0.43540   0.22710   Biso      1.000     O          -0.66505  
         O28       1.0000    0.52440   0.59790   0.89290   Biso      1.000     O          -0.5305449999999999           
         O29       1.0000    0.36230   0.81310   0.55700   Biso      1.000     O          -0.6710520000000001           
         O30       1.0000    0.19650   0.75530   0.62610   Biso      1.000     O          -0.622158           
         O31       1.0000    0.52440   0.92650   0.39290   Biso      1.000     O          -0.530543           
         O32       1.0000    0.43540   0.81860   0.27290   Biso      1.000     O          -0.665025           
         O33       1.0000    0.45080   0.63770   0.55700   Biso      1.000     O          -0.671058           
         O34       1.0000    0.55880   0.80350   0.62610   Biso      1.000     O          -0.62216  
         O35       1.0000    0.40210   0.47560   0.39290   Biso      1.000     O          -0.5305479999999999           
         O36       1.0000    0.63770   0.45080   0.94300   Biso      1.000     O          -0.671053           
         O37       1.0000    0.18690   0.54920   0.55700   Biso      1.000     O          -0.671049           
         O38       1.0000    0.38320   0.56460   0.27290   Biso      1.000     O          -0.665044           
         O39       1.0000    0.07350   0.59790   0.39290   Biso      1.000     O          -0.530546           
         O40       1.0000    0.18140   0.61680   0.27290   Biso      1.000     O          -0.665036           
         O41       1.0000    0.54920   0.18690   0.94300   Biso      1.000     O          -0.6710520000000001           
         O42       1.0000    0.44120   0.24470   0.87390   Biso      1.000     O          -0.622165           
         O43       1.0000    0.59790   0.07350   0.10710   Biso      1.000     O          -0.5305439999999999           
         O44       1.0000    0.61680   0.18140   0.22710   Biso      1.000     O          -0.66503  
         O45       1.0000    0.81310   0.36230   0.94300   Biso      1.000     O          -0.67106  
         O46       1.0000    0.75530   0.19650   0.87390   Biso      1.000     O          -0.622169           
         O47       1.0000    0.92650   0.52440   0.10710   Biso      1.000     O          -0.5305489999999999           
         O48       1.0000    0.24470   0.44120   0.62610   Biso      1.000     O          -0.622153           
         Sm1       1.0000    0.33333   0.66666   0.16786   Biso      1.000     Sm          2.090749  
         Sm2       1.0000    0.66667   0.33334   0.33214   Biso      1.000     Sm          2.090749  
         Sm3       1.0000    0.66667   0.33334   0.83214   Biso      1.000     Sm          2.090747  
         Sm4       1.0000    0.33333   0.66666   0.66786   Biso      1.000     Sm          2.090754 