
##########################################################################
#               Crystallographic Information Format file
#               Produced by PyCifRW module
#
#  This is a CIF file.  CIF has been adopted by the International
#  Union of Crystallography as the standard for data archiving and
#  transmission.
#
#  For information on this file format, follow the CIF links at
#  http://www.iucr.org
##########################################################################

data_image0

_cell_length_a                          13.388
_cell_length_b                          13.388
_cell_length_c                          14.306
_cell_angle_alpha                       90
_cell_angle_beta                        90
_cell_angle_gamma                       120
_symmetry_space_group_name_H-M          'P 1'
_symmetry_int_tables_number             1
loop_
  _symmetry_equiv_pos_as_xyz
         'x, y, z' 
loop_
  _atom_site_label
  _atom_site_occupancy
  _atom_site_fract_x
  _atom_site_fract_y
  _atom_site_fract_z
  _atom_site_thermal_displace_type
  _atom_site_B_iso_or_equiv
  _atom_site_type_symbol
  _atom_site_charge
         C1        1.0000    0.88250   0.55090   0.14070   Biso      1.000     C          -0.241978           
         C2        1.0000    0.54570   0.73090   0.06960   Biso      1.000     C          0.650051  
         C3        1.0000    0.90060   0.64620   0.98850   Biso      1.000     C          -0.228571           
         C4        1.0000    0.81480   0.54570   0.93040   Biso      1.000     C          0.65005   
         C5        1.0000    0.56400   0.12670   0.16100   Biso      1.000     C          0.686492  
         C6        1.0000    0.66840   0.11750   0.14070   Biso      1.000     C          -0.241978           
         C7        1.0000    0.74560   0.09940   0.98850   Biso      1.000     C          -0.228572           
         C8        1.0000    0.73090   0.18520   0.93040   Biso      1.000     C          0.650046  
         C9        1.0000    0.12670   0.56400   0.33900   Biso      1.000     C          0.686505  
         C10       1.0000    0.87330   0.43730   0.16100   Biso      1.000     C          0.686496  
         C11       1.0000    0.11750   0.66840   0.35930   Biso      1.000     C          -0.241977           
         C12       1.0000    0.18520   0.73090   0.56960   Biso      1.000     C          0.650049  
         C13       1.0000    0.43600   0.56270   0.33900   Biso      1.000     C          0.686497  
         C14       1.0000    0.33160   0.44910   0.35930   Biso      1.000     C          -0.241983           
         C15       1.0000    0.25440   0.35380   0.51150   Biso      1.000     C          -0.228572           
         C16       1.0000    0.26910   0.45430   0.56960   Biso      1.000     C          0.650051  
         C17       1.0000    0.43730   0.87330   0.33900   Biso      1.000     C          0.686493  
         C18       1.0000    0.55090   0.88250   0.35930   Biso      1.000     C          -0.241975           
         C19       1.0000    0.64620   0.90060   0.51150   Biso      1.000     C          -0.228573           
         C20       1.0000    0.09940   0.74560   0.51150   Biso      1.000     C          -0.228573           
         C21       1.0000    0.45430   0.26910   0.93040   Biso      1.000     C          0.65005   
         C22       1.0000    0.35380   0.25440   0.98850   Biso      1.000     C          -0.228572           
         C23       1.0000    0.44910   0.33160   0.14070   Biso      1.000     C          -0.241979           
         C24       1.0000    0.09940   0.35380   0.01150   Biso      1.000     C          -0.228573           
         C25       1.0000    0.18520   0.45430   0.06960   Biso      1.000     C          0.65005   
         C26       1.0000    0.43600   0.87330   0.83900   Biso      1.000     C          0.686492  
         C27       1.0000    0.33160   0.88250   0.85930   Biso      1.000     C          -0.241978           
         C28       1.0000    0.25440   0.90060   0.01150   Biso      1.000     C          -0.228572           
         C29       1.0000    0.26910   0.81480   0.06960   Biso      1.000     C          0.650046  
         C30       1.0000    0.87330   0.43600   0.66100   Biso      1.000     C          0.686503  
         C31       1.0000    0.88250   0.33160   0.64070   Biso      1.000     C          -0.241977           
         C32       1.0000    0.90060   0.25440   0.48850   Biso      1.000     C          -0.228575           
         C33       1.0000    0.81480   0.26910   0.43040   Biso      1.000     C          0.650048  
         C34       1.0000    0.56400   0.43730   0.66100   Biso      1.000     C          0.686496  
         C35       1.0000    0.66840   0.55090   0.64070   Biso      1.000     C          -0.241981           
         C36       1.0000    0.74560   0.64620   0.48850   Biso      1.000     C          -0.228569           
         C37       1.0000    0.73090   0.54570   0.43040   Biso      1.000     C          0.65005   
         C38       1.0000    0.56270   0.12670   0.66100   Biso      1.000     C          0.686492  
         C39       1.0000    0.44910   0.11750   0.64070   Biso      1.000     C          -0.241975           
         C40       1.0000    0.35380   0.09940   0.48850   Biso      1.000     C          -0.228574           
         C41       1.0000    0.45430   0.18520   0.43040   Biso      1.000     C          0.650045  
         C42       1.0000    0.56270   0.43600   0.16100   Biso      1.000     C          0.686501  
         C43       1.0000    0.54570   0.81480   0.56960   Biso      1.000     C          0.650046  
         C44       1.0000    0.11750   0.44910   0.85930   Biso      1.000     C          -0.241981           
         C45       1.0000    0.12670   0.56270   0.83900   Biso      1.000     C          0.686497  
         C46       1.0000    0.43730   0.56400   0.83900   Biso      1.000     C          0.686503  
         C47       1.0000    0.55090   0.66840   0.85930   Biso      1.000     C          -0.241978           
         C48       1.0000    0.64620   0.74560   0.01150   Biso      1.000     C          -0.228569           
         Cu1       1.0000    0.50000   0.00000   0.50000   Biso      1.000     Cu          0.779188  
         Cu2       1.0000    0.50000   0.50000   0.50000   Biso      1.000     Cu          0.77919   
         Cu3       1.0000    0.00000   0.50000   0.50000   Biso      1.000     Cu          0.779189  
         Cu4       1.0000    0.50000   0.00000   0.00000   Biso      1.000     Cu          0.779187  
         Cu5       1.0000    0.00000   0.50000   0.00000   Biso      1.000     Cu          0.779189  
         Cu6       1.0000    0.50000   0.50000   0.00000   Biso      1.000     Cu          0.77919   
         H1        1.0000    0.65020   0.67250   0.57950   Biso      1.000     H          0.258414  
         H2        1.0000    0.19410   0.73320   0.37100   Biso      1.000     H          0.150155  
         H3        1.0000    0.08660   0.68690   0.30490   Biso      1.000     H          0.147891  
         H4        1.0000    0.65020   0.97770   0.07950   Biso      1.000     H          0.258413  
         H5        1.0000    0.74500   0.04110   0.94790   Biso      1.000     H          0.142931  
         H6        1.0000    0.95890   0.70390   0.94790   Biso      1.000     H          0.142936  
         H7        1.0000    0.73320   0.19410   0.12900   Biso      1.000     H          0.150146  
         H8        1.0000    0.68690   0.08660   0.19510   Biso      1.000     H          0.147885  
         H9        1.0000    0.02230   0.67250   0.07950   Biso      1.000     H          0.258415  
         H10       1.0000    0.13870   0.81970   0.48010   Biso      1.000     H          0.126717  
         H11       1.0000    0.81970   0.13870   0.01990   Biso      1.000     H          0.126706  
         H12       1.0000    0.04110   0.74500   0.55210   Biso      1.000     H          0.142942  
         H13       1.0000    0.25500   0.29610   0.55210   Biso      1.000     H          0.142941  
         H14       1.0000    0.31310   0.39970   0.30490   Biso      1.000     H          0.147891  
         H15       1.0000    0.26680   0.46090   0.37100   Biso      1.000     H          0.150147  
         H16       1.0000    0.18030   0.31900   0.48010   Biso      1.000     H          0.126715  
         H17       1.0000    0.86130   0.68100   0.01990   Biso      1.000     H          0.126712  
         H18       1.0000    0.34980   0.32750   0.42050   Biso      1.000     H          0.258416  
         H19       1.0000    0.60030   0.91340   0.30490   Biso      1.000     H          0.147885  
         H20       1.0000    0.53910   0.80590   0.37100   Biso      1.000     H          0.150148  
         H21       1.0000    0.68100   0.86130   0.48010   Biso      1.000     H          0.126709  
         H22       1.0000    0.70390   0.95890   0.55210   Biso      1.000     H          0.142934  
         H23       1.0000    0.67250   0.02230   0.42050   Biso      1.000     H          0.258413  
         H24       1.0000    0.97770   0.65020   0.42050   Biso      1.000     H          0.258416  
         H25       1.0000    0.39970   0.08660   0.69510   Biso      1.000     H          0.147884  
         H26       1.0000    0.80590   0.53910   0.12900   Biso      1.000     H          0.150152  
         H27       1.0000    0.32750   0.34980   0.07950   Biso      1.000     H          0.258411  
         H28       1.0000    0.74500   0.70390   0.44790   Biso      1.000     H          0.142928  
         H29       1.0000    0.81970   0.68100   0.51990   Biso      1.000     H          0.126709  
         H30       1.0000    0.73320   0.53910   0.62900   Biso      1.000     H          0.150147  
         H31       1.0000    0.68690   0.60030   0.69510   Biso      1.000     H          0.147885  
         H32       1.0000    0.02230   0.34980   0.57950   Biso      1.000     H          0.258414  
         H33       1.0000    0.95890   0.25500   0.44790   Biso      1.000     H          0.142942  
         H34       1.0000    0.86130   0.18030   0.51990   Biso      1.000     H          0.126718  
         H35       1.0000    0.80590   0.26680   0.62900   Biso      1.000     H          0.150155  
         H36       1.0000    0.91340   0.31310   0.69510   Biso      1.000     H          0.147891  
         H37       1.0000    0.34980   0.02230   0.92050   Biso      1.000     H          0.258414  
         H38       1.0000    0.46090   0.19410   0.62900   Biso      1.000     H          0.150148  
         H39       1.0000    0.18030   0.86130   0.98010   Biso      1.000     H          0.126707  
         H40       1.0000    0.26680   0.80590   0.87100   Biso      1.000     H          0.150146  
         H41       1.0000    0.31310   0.91340   0.80490   Biso      1.000     H          0.147887  
         H42       1.0000    0.97770   0.32750   0.92050   Biso      1.000     H          0.258418  
         H43       1.0000    0.04110   0.29610   0.05210   Biso      1.000     H          0.142947  
         H44       1.0000    0.13870   0.31900   0.98010   Biso      1.000     H          0.126719  
         H45       1.0000    0.29610   0.25500   0.94790   Biso      1.000     H          0.142926  
         H46       1.0000    0.31900   0.18030   0.01990   Biso      1.000     H          0.126709  
         H47       1.0000    0.46090   0.26680   0.12900   Biso      1.000     H          0.150151  
         H48       1.0000    0.39970   0.31310   0.19510   Biso      1.000     H          0.147884  
         H49       1.0000    0.32750   0.97770   0.57950   Biso      1.000     H          0.258412  
         H50       1.0000    0.29610   0.04110   0.44790   Biso      1.000     H          0.142933  
         H51       1.0000    0.91340   0.60030   0.19510   Biso      1.000     H          0.147885  
         H52       1.0000    0.31900   0.13870   0.51990   Biso      1.000     H          0.126709  
         H53       1.0000    0.53910   0.73320   0.87100   Biso      1.000     H          0.15015   
         H54       1.0000    0.68100   0.81970   0.98010   Biso      1.000     H          0.126708  
         H55       1.0000    0.70390   0.74500   0.05210   Biso      1.000     H          0.142924  
         H56       1.0000    0.67250   0.65020   0.92050   Biso      1.000     H          0.258412  
         H57       1.0000    0.08660   0.39970   0.80490   Biso      1.000     H          0.147891  
         H58       1.0000    0.19410   0.46090   0.87100   Biso      1.000     H          0.150152  
         H59       1.0000    0.60030   0.68690   0.80490   Biso      1.000     H          0.147885  
         H60       1.0000    0.25500   0.95890   0.05210   Biso      1.000     H          0.142932  
         Ho1       1.0000    0.33333   0.66666   0.66691   Biso      1.000     Ho          2.074931  
         Ho2       1.0000    0.33333   0.66666   0.16691   Biso      1.000     Ho          2.074931  
         Ho3       1.0000    0.66667   0.33334   0.33309   Biso      1.000     Ho          2.074925  
         Ho4       1.0000    0.66667   0.33334   0.83309   Biso      1.000     Ho          2.074924  
         N1        1.0000    0.60920   0.65230   0.94080   Biso      1.000     N          -0.283568           
         N2        1.0000    0.04310   0.39080   0.94080   Biso      1.000     N          -0.283564           
         N3        1.0000    0.95690   0.34770   0.55920   Biso      1.000     N          -0.283567           
         N4        1.0000    0.65230   0.60920   0.55920   Biso      1.000     N          -0.283566           
         N5        1.0000    0.39080   0.04310   0.55920   Biso      1.000     N          -0.283569           
         N6        1.0000    0.34770   0.95690   0.94080   Biso      1.000     N          -0.283567           
         N7        1.0000    0.95690   0.60920   0.05920   Biso      1.000     N          -0.283566           
         N8        1.0000    0.65230   0.04310   0.05920   Biso      1.000     N          -0.283568           
         N9        1.0000    0.04310   0.65230   0.44080   Biso      1.000     N          -0.283566           
         N10       1.0000    0.34770   0.39080   0.44080   Biso      1.000     N          -0.283565           
         N11       1.0000    0.60920   0.95690   0.44080   Biso      1.000     N          -0.283568           
         N12       1.0000    0.39080   0.34770   0.05920   Biso      1.000     N          -0.283569           
         O1        1.0000    0.75300   0.19400   0.37240   Biso      1.000     O          -0.616141           
         O2        1.0000    0.44100   0.24700   0.37240   Biso      1.000     O          -0.616162           
         O3        1.0000    0.59790   0.07350   0.60920   Biso      1.000     O          -0.524809           
         O4        1.0000    0.62030   0.18590   0.72990   Biso      1.000     O          -0.669324           
         O5        1.0000    0.63970   0.44970   0.44100   Biso      1.000     O          -0.679479           
         O6        1.0000    0.80600   0.55900   0.37240   Biso      1.000     O          -0.616159           
         O7        1.0000    0.47560   0.40210   0.60920   Biso      1.000     O          -0.524805           
         O8        1.0000    0.56560   0.37970   0.72990   Biso      1.000     O          -0.669331           
         O9        1.0000    0.81000   0.36030   0.44100   Biso      1.000     O          -0.679481           
         O10       1.0000    0.92650   0.52440   0.60920   Biso      1.000     O          -0.524802           
         O11       1.0000    0.07350   0.59790   0.89080   Biso      1.000     O          -0.524797           
         O12       1.0000    0.36030   0.81000   0.05900   Biso      1.000     O          -0.679457           
         O13       1.0000    0.19400   0.75300   0.12760   Biso      1.000     O          -0.616167           
         O14       1.0000    0.52440   0.92650   0.89080   Biso      1.000     O          -0.524804           
         O15       1.0000    0.43440   0.81410   0.77010   Biso      1.000     O          -0.669325           
         O16       1.0000    0.19000   0.55030   0.05900   Biso      1.000     O          -0.679476           
         O17       1.0000    0.24700   0.44100   0.12760   Biso      1.000     O          -0.616147           
         O18       1.0000    0.55030   0.19000   0.44100   Biso      1.000     O          -0.679458           
         O19       1.0000    0.18590   0.62030   0.77010   Biso      1.000     O          -0.669326           
         O20       1.0000    0.44970   0.63970   0.05900   Biso      1.000     O          -0.67949  
         O21       1.0000    0.55900   0.80600   0.12760   Biso      1.000     O          -0.61615  
         O22       1.0000    0.81410   0.43440   0.72990   Biso      1.000     O          -0.669333           
         O23       1.0000    0.62030   0.43440   0.22990   Biso      1.000     O          -0.669344           
         O24       1.0000    0.81000   0.44970   0.94100   Biso      1.000     O          -0.67948  
         O25       1.0000    0.44100   0.19400   0.87240   Biso      1.000     O          -0.616153           
         O26       1.0000    0.44970   0.81000   0.55900   Biso      1.000     O          -0.67946  
         O27       1.0000    0.55900   0.75300   0.62760   Biso      1.000     O          -0.61616  
         O28       1.0000    0.40210   0.92650   0.39080   Biso      1.000     O          -0.524808           
         O29       1.0000    0.37970   0.81410   0.27010   Biso      1.000     O          -0.669324           
         O30       1.0000    0.36030   0.55030   0.55900   Biso      1.000     O          -0.679475           
         O31       1.0000    0.19400   0.44100   0.62760   Biso      1.000     O          -0.616153           
         O32       1.0000    0.52440   0.59790   0.39080   Biso      1.000     O          -0.5248   
         O33       1.0000    0.43440   0.62030   0.27010   Biso      1.000     O          -0.669328           
         O34       1.0000    0.19000   0.63970   0.55900   Biso      1.000     O          -0.679483           
         O35       1.0000    0.24700   0.80600   0.62760   Biso      1.000     O          -0.616138           
         O36       1.0000    0.07350   0.47560   0.39080   Biso      1.000     O          -0.524802           
         O37       1.0000    0.18590   0.56560   0.27010   Biso      1.000     O          -0.669334           
         O38       1.0000    0.63970   0.19000   0.94100   Biso      1.000     O          -0.679456           
         O39       1.0000    0.80600   0.24700   0.87240   Biso      1.000     O          -0.61617  
         O40       1.0000    0.47560   0.07350   0.10920   Biso      1.000     O          -0.524807           
         O41       1.0000    0.56560   0.18590   0.22990   Biso      1.000     O          -0.669324           
         O42       1.0000    0.40210   0.47560   0.89080   Biso      1.000     O          -0.524807           
         O43       1.0000    0.75300   0.55900   0.87240   Biso      1.000     O          -0.616154           
         O44       1.0000    0.92650   0.40210   0.10920   Biso      1.000     O          -0.524801           
         O45       1.0000    0.81410   0.37970   0.22990   Biso      1.000     O          -0.669327           
         O46       1.0000    0.55030   0.36030   0.94100   Biso      1.000     O          -0.679487           
         O47       1.0000    0.59790   0.52440   0.10920   Biso      1.000     O          -0.524806           
         O48       1.0000    0.37970   0.56560   0.77010   Biso      1.000     O          -0.669345 