
##########################################################################
#               Crystallographic Information Format file
#               Produced by PyCifRW module
#
#  This is a CIF file.  CIF has been adopted by the International
#  Union of Crystallography as the standard for data archiving and
#  transmission.
#
#  For information on this file format, follow the CIF links at
#  http://www.iucr.org
##########################################################################

data_image0

_cell_length_a                          13.4946
_cell_length_b                          13.4946
_cell_length_c                          14.912
_cell_angle_alpha                       90
_cell_angle_beta                        90
_cell_angle_gamma                       120
_symmetry_space_group_name_H-M          'P 1'
_symmetry_int_tables_number             1
loop_
  _symmetry_equiv_pos_as_xyz
         'x, y, z' 
loop_
  _atom_site_label
  _atom_site_occupancy
  _atom_site_fract_x
  _atom_site_fract_y
  _atom_site_fract_z
  _atom_site_thermal_displace_type
  _atom_site_B_iso_or_equiv
  _atom_site_type_symbol
  _atom_site_charge
         C1        1.0000    0.88770   0.33410   0.13680   Biso      1.000     C          -0.246875           
         C2        1.0000    0.27290   0.45300   0.06590   Biso      1.000     C          0.640206  
         C3        1.0000    0.90410   0.25630   0.99130   Biso      1.000     C          -0.230064           
         C4        1.0000    0.81990   0.27290   0.93410   Biso      1.000     C          0.640204  
         C5        1.0000    0.56090   0.12160   0.15710   Biso      1.000     C          0.674772  
         C6        1.0000    0.44640   0.11230   0.13680   Biso      1.000     C          -0.246871           
         C7        1.0000    0.35220   0.09590   0.99130   Biso      1.000     C          -0.230064           
         C8        1.0000    0.45300   0.18010   0.93410   Biso      1.000     C          0.640217  
         C9        1.0000    0.12160   0.56090   0.34290   Biso      1.000     C          0.674776  
         C10       1.0000    0.87840   0.43930   0.15710   Biso      1.000     C          0.674778  
         C11       1.0000    0.11230   0.44640   0.36320   Biso      1.000     C          -0.246876           
         C12       1.0000    0.18010   0.45300   0.56590   Biso      1.000     C          0.640205  
         C13       1.0000    0.43910   0.56070   0.34290   Biso      1.000     C          0.674778  
         C14       1.0000    0.55360   0.66590   0.36320   Biso      1.000     C          -0.246876           
         C15       1.0000    0.64780   0.74370   0.50870   Biso      1.000     C          -0.23006500000000002          
         C16       1.0000    0.54700   0.72710   0.56590   Biso      1.000     C          0.640204  
         C17       1.0000    0.43930   0.87840   0.34290   Biso      1.000     C          0.674772  
         C18       1.0000    0.33410   0.88770   0.36320   Biso      1.000     C          -0.24686999999999998          
         C19       1.0000    0.25630   0.90410   0.50870   Biso      1.000     C          -0.230064           
         C20       1.0000    0.09590   0.35220   0.50870   Biso      1.000     C          -0.230059           
         C21       1.0000    0.72710   0.54700   0.93410   Biso      1.000     C          0.640205  
         C22       1.0000    0.74370   0.64780   0.99130   Biso      1.000     C          -0.230062           
         C23       1.0000    0.66590   0.55360   0.13680   Biso      1.000     C          -0.246876           
         C24       1.0000    0.09590   0.74370   0.00870   Biso      1.000     C          -0.230059           
         C25       1.0000    0.18010   0.72710   0.06590   Biso      1.000     C          0.640204  
         C26       1.0000    0.43910   0.87840   0.84290   Biso      1.000     C          0.674773  
         C27       1.0000    0.55360   0.88770   0.86320   Biso      1.000     C          -0.246873           
         C28       1.0000    0.64780   0.90410   0.00870   Biso      1.000     C          -0.23006500000000002          
         C29       1.0000    0.54700   0.81990   0.06590   Biso      1.000     C          0.640219  
         C30       1.0000    0.87840   0.43910   0.65710   Biso      1.000     C          0.6747770000000001  
         C31       1.0000    0.88770   0.55360   0.63680   Biso      1.000     C          -0.246876           
         C32       1.0000    0.90410   0.64780   0.49130   Biso      1.000     C          -0.230062           
         C33       1.0000    0.81990   0.54700   0.43410   Biso      1.000     C          0.640206  
         C34       1.0000    0.56090   0.43930   0.65710   Biso      1.000     C          0.674778  
         C35       1.0000    0.44640   0.33410   0.63680   Biso      1.000     C          -0.246875           
         C36       1.0000    0.35220   0.25630   0.49130   Biso      1.000     C          -0.23006  
         C37       1.0000    0.45300   0.27290   0.43410   Biso      1.000     C          0.640204  
         C38       1.0000    0.56070   0.12160   0.65710   Biso      1.000     C          0.674772  
         C39       1.0000    0.66590   0.11230   0.63680   Biso      1.000     C          -0.24686999999999998          
         C40       1.0000    0.74370   0.09590   0.49130   Biso      1.000     C          -0.23006300000000002          
         C41       1.0000    0.72710   0.18010   0.43410   Biso      1.000     C          0.640219  
         C42       1.0000    0.56070   0.43910   0.15710   Biso      1.000     C          0.6747770000000001  
         C43       1.0000    0.27290   0.81990   0.56590   Biso      1.000     C          0.6402180000000001  
         C44       1.0000    0.11230   0.66590   0.86320   Biso      1.000     C          -0.246875           
         C45       1.0000    0.12160   0.56070   0.84290   Biso      1.000     C          0.674778  
         C46       1.0000    0.43930   0.56090   0.84290   Biso      1.000     C          0.6747770000000001  
         C47       1.0000    0.33410   0.44640   0.86320   Biso      1.000     C          -0.246876           
         C48       1.0000    0.25630   0.35220   0.00870   Biso      1.000     C          -0.230062           
         Cu1       1.0000    0.50000   0.00000   0.50000   Biso      1.000     Cu          0.78222   
         Cu2       1.0000    0.50000   0.50000   0.50000   Biso      1.000     Cu          0.7822100000000001  
         Cu3       1.0000    0.00000   0.50000   0.50000   Biso      1.000     Cu          0.782213  
         Cu4       1.0000    0.50000   0.00000   0.00000   Biso      1.000     Cu          0.782221  
         Cu5       1.0000    0.00000   0.50000   0.00000   Biso      1.000     Cu          0.782209  
         Cu6       1.0000    0.50000   0.50000   0.00000   Biso      1.000     Cu          0.782215  
         H1        1.0000    0.32720   0.35280   0.57670   Biso      1.000     H          0.257924  
         H2        1.0000    0.08040   0.39680   0.31150   Biso      1.000     H          0.14322100000000001           
         H3        1.0000    0.18830   0.45790   0.37360   Biso      1.000     H          0.14544400000000002           
         H4        1.0000    0.32720   0.97440   0.07670   Biso      1.000     H          0.257924  
         H5        1.0000    0.31950   0.13620   0.02210   Biso      1.000     H          0.126435  
         H6        1.0000    0.86380   0.18330   0.02210   Biso      1.000     H          0.126442  
         H7        1.0000    0.39680   0.08040   0.18850   Biso      1.000     H          0.14322200000000002           
         H8        1.0000    0.45790   0.18830   0.12640   Biso      1.000     H          0.14544200000000002           
         H9        1.0000    0.02560   0.35280   0.07670   Biso      1.000     H          0.25792600000000004           
         H10       1.0000    0.03820   0.29350   0.54690   Biso      1.000     H          0.141772  
         H11       1.0000    0.29350   0.03820   0.95310   Biso      1.000     H          0.141775  
         H12       1.0000    0.13620   0.31950   0.47790   Biso      1.000     H          0.12643800000000002           
         H13       1.0000    0.68050   0.81670   0.47790   Biso      1.000     H          0.126443  
         H14       1.0000    0.54210   0.73040   0.37360   Biso      1.000     H          0.145449  
         H15       1.0000    0.60320   0.68360   0.31150   Biso      1.000     H          0.143225  
         H16       1.0000    0.70650   0.74470   0.54690   Biso      1.000     H          0.14178   
         H17       1.0000    0.96180   0.25530   0.95310   Biso      1.000     H          0.14177599999999999           
         H18       1.0000    0.67280   0.64720   0.42330   Biso      1.000     H          0.25792600000000004           
         H19       1.0000    0.26960   0.81170   0.37360   Biso      1.000     H          0.14544200000000002           
         H20       1.0000    0.31640   0.91960   0.31150   Biso      1.000     H          0.143219  
         H21       1.0000    0.25530   0.96180   0.54690   Biso      1.000     H          0.141774  
         H22       1.0000    0.18330   0.86380   0.47790   Biso      1.000     H          0.126436  
         H23       1.0000    0.35280   0.02560   0.42330   Biso      1.000     H          0.257924  
         H24       1.0000    0.97440   0.32720   0.42330   Biso      1.000     H          0.25792600000000004           
         H25       1.0000    0.73040   0.18830   0.62640   Biso      1.000     H          0.14544200000000002           
         H26       1.0000    0.91960   0.31640   0.18850   Biso      1.000     H          0.143226  
         H27       1.0000    0.64720   0.67280   0.07670   Biso      1.000     H          0.257927  
         H28       1.0000    0.31950   0.18330   0.52210   Biso      1.000     H          0.126437  
         H29       1.0000    0.29350   0.25530   0.45310   Biso      1.000     H          0.141771  
         H30       1.0000    0.39680   0.31640   0.68850   Biso      1.000     H          0.14322200000000002           
         H31       1.0000    0.45790   0.26960   0.62640   Biso      1.000     H          0.145448  
         H32       1.0000    0.02560   0.67280   0.57670   Biso      1.000     H          0.25792600000000004           
         H33       1.0000    0.86380   0.68050   0.52210   Biso      1.000     H          0.126441  
         H34       1.0000    0.96180   0.70650   0.45310   Biso      1.000     H          0.141779  
         H35       1.0000    0.91960   0.60320   0.68850   Biso      1.000     H          0.143223  
         H36       1.0000    0.81170   0.54210   0.62640   Biso      1.000     H          0.14544400000000002           
         H37       1.0000    0.67280   0.02560   0.92330   Biso      1.000     H          0.257924  
         H38       1.0000    0.68360   0.08040   0.68850   Biso      1.000     H          0.14322000000000001           
         H39       1.0000    0.70650   0.96180   0.04690   Biso      1.000     H          0.141777  
         H40       1.0000    0.60320   0.91960   0.81150   Biso      1.000     H          0.143225  
         H41       1.0000    0.54210   0.81170   0.87360   Biso      1.000     H          0.14544300000000002           
         H42       1.0000    0.97440   0.64720   0.92330   Biso      1.000     H          0.257924  
         H43       1.0000    0.13620   0.81670   0.97790   Biso      1.000     H          0.126437  
         H44       1.0000    0.03820   0.74470   0.04690   Biso      1.000     H          0.141768  
         H45       1.0000    0.81670   0.68050   0.02210   Biso      1.000     H          0.126442  
         H46       1.0000    0.74470   0.70650   0.95310   Biso      1.000     H          0.141781  
         H47       1.0000    0.68360   0.60320   0.18850   Biso      1.000     H          0.143226  
         H48       1.0000    0.73040   0.54210   0.12640   Biso      1.000     H          0.145446  
         H49       1.0000    0.64720   0.97440   0.57670   Biso      1.000     H          0.257923  
         H50       1.0000    0.81670   0.13620   0.52210   Biso      1.000     H          0.126434  
         H51       1.0000    0.81170   0.26960   0.12640   Biso      1.000     H          0.145448  
         H52       1.0000    0.74470   0.03820   0.45310   Biso      1.000     H          0.141774  
         H53       1.0000    0.31640   0.39680   0.81150   Biso      1.000     H          0.143225  
         H54       1.0000    0.25530   0.29350   0.04690   Biso      1.000     H          0.14178   
         H55       1.0000    0.18330   0.31950   0.97790   Biso      1.000     H          0.126442  
         H56       1.0000    0.35280   0.32720   0.92330   Biso      1.000     H          0.257927  
         H57       1.0000    0.18830   0.73040   0.87360   Biso      1.000     H          0.145448  
         H58       1.0000    0.08040   0.68360   0.81150   Biso      1.000     H          0.143224  
         H59       1.0000    0.26960   0.45790   0.87360   Biso      1.000     H          0.145446  
         H60       1.0000    0.68050   0.86380   0.97790   Biso      1.000     H          0.126437  
         La1       1.0000    0.33333   0.66666   0.66912   Biso      1.000     La          1.8695169999999999  
         La2       1.0000    0.33333   0.66666   0.16912   Biso      1.000     La          1.869514  
         La3       1.0000    0.66667   0.33334   0.33088   Biso      1.000     La          1.869515  
         La4       1.0000    0.66667   0.33334   0.83088   Biso      1.000     La          1.8695169999999999  
         N1        1.0000    0.34950   0.38960   0.94220   Biso      1.000     N          -0.284337           
         N2        1.0000    0.04010   0.65050   0.94220   Biso      1.000     N          -0.284339           
         N3        1.0000    0.95990   0.61040   0.55780   Biso      1.000     N          -0.284337           
         N4        1.0000    0.38960   0.34950   0.55780   Biso      1.000     N          -0.28433800000000004          
         N5        1.0000    0.65050   0.04010   0.55780   Biso      1.000     N          -0.28433800000000004          
         N6        1.0000    0.61040   0.95990   0.94220   Biso      1.000     N          -0.284337           
         N7        1.0000    0.95990   0.34950   0.05780   Biso      1.000     N          -0.28433800000000004          
         N8        1.0000    0.38960   0.04010   0.05780   Biso      1.000     N          -0.28433600000000003          
         N9        1.0000    0.04010   0.38960   0.44220   Biso      1.000     N          -0.28433800000000004          
         N10       1.0000    0.61040   0.65050   0.44220   Biso      1.000     N          -0.284337           
         N11       1.0000    0.34950   0.95990   0.44220   Biso      1.000     N          -0.284337           
         N12       1.0000    0.65050   0.61040   0.05780   Biso      1.000     N          -0.284337           
         O1        1.0000    0.75970   0.56100   0.37750   Biso      1.000     O          -0.601579           
         O2        1.0000    0.80130   0.24030   0.37750   Biso      1.000     O          -0.601586           
         O3        1.0000    0.47630   0.07300   0.60479   Biso      1.000     O          -0.535234           
         O4        1.0000    0.56380   0.17660   0.72410   Biso      1.000     O          -0.61398  
         O5        1.0000    0.54730   0.36430   0.44400   Biso      1.000     O          -0.632004           
         O6        1.0000    0.43900   0.19870   0.37750   Biso      1.000     O          -0.601571           
         O7        1.0000    0.59670   0.52370   0.60479   Biso      1.000     O          -0.535233           
         O8        1.0000    0.61280   0.43620   0.72410   Biso      1.000     O          -0.613983           
         O9        1.0000    0.81700   0.45270   0.44400   Biso      1.000     O          -0.6320020000000001           
         O10       1.0000    0.92700   0.40330   0.60479   Biso      1.000     O          -0.53523  
         O11       1.0000    0.07300   0.47630   0.89521   Biso      1.000     O          -0.535233           
         O12       1.0000    0.45270   0.81700   0.05600   Biso      1.000     O          -0.632019           
         O13       1.0000    0.56100   0.75970   0.12250   Biso      1.000     O          -0.601584           
         O14       1.0000    0.40330   0.92700   0.89521   Biso      1.000     O          -0.535234           
         O15       1.0000    0.38720   0.82340   0.77590   Biso      1.000     O          -0.6139789999999999           
         O16       1.0000    0.18300   0.63570   0.05600   Biso      1.000     O          -0.632004           
         O17       1.0000    0.24030   0.80130   0.12250   Biso      1.000     O          -0.6015689999999999           
         O18       1.0000    0.63570   0.18300   0.44400   Biso      1.000     O          -0.63202  
         O19       1.0000    0.17660   0.56380   0.77590   Biso      1.000     O          -0.61398  
         O20       1.0000    0.36430   0.54730   0.05600   Biso      1.000     O          -0.6320020000000001           
         O21       1.0000    0.19870   0.43900   0.12250   Biso      1.000     O          -0.601575           
         O22       1.0000    0.82340   0.38720   0.72410   Biso      1.000     O          -0.6139789999999999           
         O23       1.0000    0.56380   0.38720   0.22410   Biso      1.000     O          -0.613975           
         O24       1.0000    0.81700   0.36430   0.94400   Biso      1.000     O          -0.632003           
         O25       1.0000    0.80130   0.56100   0.87750   Biso      1.000     O          -0.601575           
         O26       1.0000    0.36430   0.81700   0.55600   Biso      1.000     O          -0.632021           
         O27       1.0000    0.19870   0.75970   0.62250   Biso      1.000     O          -0.601585           
         O28       1.0000    0.52370   0.92700   0.39521   Biso      1.000     O          -0.535235           
         O29       1.0000    0.43620   0.82340   0.27590   Biso      1.000     O          -0.6139819999999999           
         O30       1.0000    0.45270   0.63570   0.55600   Biso      1.000     O          -0.6320020000000001           
         O31       1.0000    0.56100   0.80130   0.62250   Biso      1.000     O          -0.6015699999999999           
         O32       1.0000    0.40330   0.47630   0.39521   Biso      1.000     O          -0.535231           
         O33       1.0000    0.38720   0.56380   0.27590   Biso      1.000     O          -0.6139819999999999           
         O34       1.0000    0.18300   0.54730   0.55600   Biso      1.000     O          -0.632005           
         O35       1.0000    0.24030   0.43900   0.62250   Biso      1.000     O          -0.60158  
         O36       1.0000    0.07300   0.59670   0.39521   Biso      1.000     O          -0.535231           
         O37       1.0000    0.17660   0.61280   0.27590   Biso      1.000     O          -0.6139789999999999           
         O38       1.0000    0.54730   0.18300   0.94400   Biso      1.000     O          -0.632021           
         O39       1.0000    0.43900   0.24030   0.87750   Biso      1.000     O          -0.601584           
         O40       1.0000    0.59670   0.07300   0.10479   Biso      1.000     O          -0.535235           
         O41       1.0000    0.61280   0.17660   0.22410   Biso      1.000     O          -0.6139789999999999           
         O42       1.0000    0.52370   0.59670   0.89521   Biso      1.000     O          -0.535229           
         O43       1.0000    0.75970   0.19870   0.87750   Biso      1.000     O          -0.6015689999999999           
         O44       1.0000    0.92700   0.52370   0.10479   Biso      1.000     O          -0.535231           
         O45       1.0000    0.82340   0.43620   0.22410   Biso      1.000     O          -0.61398  
         O46       1.0000    0.63570   0.45270   0.94400   Biso      1.000     O          -0.632003           
         O47       1.0000    0.47630   0.40330   0.10479   Biso      1.000     O          -0.5352279999999999           
         O48       1.0000    0.43620   0.61280   0.77590   Biso      1.000     O          -0.6139760000000001 