
##########################################################################
#               Crystallographic Information Format file
#               Produced by PyCifRW module
#
#  This is a CIF file.  CIF has been adopted by the International
#  Union of Crystallography as the standard for data archiving and
#  transmission.
#
#  For information on this file format, follow the CIF links at
#  http://www.iucr.org
##########################################################################

data_image0

_cell_length_a                          10.4796
_cell_length_b                          17.768
_cell_length_c                          17.768
_cell_angle_alpha                       120
_cell_angle_beta                        90
_cell_angle_gamma                       90
_symmetry_space_group_name_H-M          'P 1'
_symmetry_int_tables_number             1
loop_
  _symmetry_equiv_pos_as_xyz
         'x, y, z' 
loop_
  _atom_site_label
  _atom_site_occupancy
  _atom_site_fract_x
  _atom_site_fract_y
  _atom_site_fract_z
  _atom_site_thermal_displace_type
  _atom_site_B_iso_or_equiv
  _atom_site_type_symbol
  _atom_site_charge
         Br1       1.0000    0.58172   0.45183   0.13151   Biso      1.000     Br          -0.5082979999999999           
         Br2       1.0000    0.91506   0.86849   0.32032   Biso      1.000     Br          -0.50805  
         Br3       1.0000    0.24839   0.67968   0.54817   Biso      1.000     Br          -0.508247           
         Br4       1.0000    0.08172   0.54817   0.86849   Biso      1.000     Br          -0.5082979999999999           
         Br5       1.0000    0.41506   0.13151   0.67968   Biso      1.000     Br          -0.50805  
         Br6       1.0000    0.74839   0.32032   0.45183   Biso      1.000     Br          -0.5082479999999999           
         C1        1.0000    0.25473   0.47330   0.19400   Biso      1.000     C          -0.180061           
         C2        1.0000    0.61287   0.72090   0.21920   Biso      1.000     C          0.097485  
         C3        1.0000    0.38997   0.79500   0.21030   Biso      1.000     C          -0.209341           
         C4        1.0000    0.47347   0.84390   0.27620   Biso      1.000     C          0.160914  
         C5        1.0000    0.58807   0.80600   0.27930   Biso      1.000     C          -0.178566           
         C6        1.0000    0.44007   0.93300   0.34620   Biso      1.000     C          -0.134155           
         C7        1.0000    0.86433   0.53220   0.05320   Biso      1.000     C          0.594515  
         C8        1.0000    0.10723   0.66540   0.24080   Biso      1.000     C          -0.5079279999999999           
         C9        1.0000    0.01133   0.64560   0.16760   Biso      1.000     C          0.10611199999999998           
         C10       1.0000    0.05333   0.68320   0.11190   Biso      1.000     C          -0.509578           
         C11       1.0000    0.42347   0.70870   0.14880   Biso      1.000     C          0.08777   
         C12       1.0000    0.09013   0.44010   0.29130   Biso      1.000     C          0.089821  
         C13       1.0000    0.27953   0.49830   0.27910   Biso      1.000     C          0.097496  
         C14       1.0000    0.05663   0.41530   0.20500   Biso      1.000     C          -0.20923200000000003          
         C15       1.0000    0.98043   0.54890   0.11330   Biso      1.000     C          -0.072492           
         C16       1.0000    0.44057   0.75920   0.42460   Biso      1.000     C          -0.5082220000000001           
         C17       1.0000    0.31377   0.88670   0.43560   Biso      1.000     C          -0.074674           
         C18       1.0000    0.34467   0.83240   0.47800   Biso      1.000     C          0.10620299999999999           
         C19       1.0000    0.14013   0.43230   0.15610   Biso      1.000     C          0.160687  
         C20       1.0000    0.19767   0.94680   0.47900   Biso      1.000     C          0.594593  
         C21       1.0000    0.77340   0.65380   0.58680   Biso      1.000     C          -0.134884           
         C22       1.0000    0.92140   0.72070   0.52670   Biso      1.000     C          -0.181115           
         C23       1.0000    0.80680   0.72380   0.56770   Biso      1.000     C          0.162388  
         C24       1.0000    0.72330   0.78970   0.58470   Biso      1.000     C          -0.209173           
         C25       1.0000    0.94620   0.78080   0.50170   Biso      1.000     C          0.09808099999999999           
         C26       1.0000    0.75680   0.85120   0.55990   Biso      1.000     C          0.089433  
         C27       1.0000    0.77390   0.57540   0.33460   Biso      1.000     C          -0.508372           
         C28       1.0000    0.72000   0.42870   0.31680   Biso      1.000     C          -0.5107689999999999           
         C29       1.0000    0.67800   0.52200   0.35440   Biso      1.000     C          0.10681099999999999           
         C30       1.0000    0.64710   0.56440   0.45110   Biso      1.000     C          -0.072629           
         C31       1.0000    0.53100   0.52100   0.46780   Biso      1.000     C          0.595437  
         C32       1.0000    0.38667   0.88810   0.57130   Biso      1.000     C          -0.508526           
         C33       1.0000    0.10673   0.41320   0.06700   Biso      1.000     C          -0.132173           
         C34       1.0000    0.17800   0.47800   0.64560   Biso      1.000     C          0.10681099999999999           
         C35       1.0000    0.14710   0.43560   0.54890   Biso      1.000     C          -0.072629           
         C36       1.0000    0.97347   0.15610   0.72380   Biso      1.000     C          0.160909  
         C37       1.0000    0.08807   0.19400   0.72070   Biso      1.000     C          -0.178569           
         C38       1.0000    0.94007   0.06700   0.65380   Biso      1.000     C          -0.134154           
         C39       1.0000    0.36433   0.46780   0.94680   Biso      1.000     C          0.594515  
         C40       1.0000    0.48043   0.45110   0.88670   Biso      1.000     C          -0.072492           
         C41       1.0000    0.51133   0.35440   0.83240   Biso      1.000     C          0.10611199999999998           
         C42       1.0000    0.88997   0.20500   0.78970   Biso      1.000     C          -0.209335           
         C43       1.0000    0.55333   0.31680   0.88810   Biso      1.000     C          -0.509578           
         C44       1.0000    0.59013   0.55990   0.70870   Biso      1.000     C          0.089821  
         C45       1.0000    0.77953   0.50170   0.72090   Biso      1.000     C          0.09749   
         C46       1.0000    0.55663   0.58470   0.79500   Biso      1.000     C          -0.20923200000000003          
         C47       1.0000    0.64013   0.56770   0.84390   Biso      1.000     C          0.160686  
         C48       1.0000    0.75473   0.52670   0.80600   Biso      1.000     C          -0.180055           
         C49       1.0000    0.60673   0.58680   0.93300   Biso      1.000     C          -0.132173           
         C50       1.0000    0.60723   0.33460   0.75920   Biso      1.000     C          -0.5079279999999999           
         C51       1.0000    0.03100   0.47900   0.53220   Biso      1.000     C          0.595437  
         C52       1.0000    0.11287   0.27910   0.78080   Biso      1.000     C          0.097488  
         C53       1.0000    0.94057   0.24080   0.57540   Biso      1.000     C          -0.5082220000000001           
         C54       1.0000    0.22000   0.57130   0.68320   Biso      1.000     C          -0.5107689999999999           
         C55       1.0000    0.27390   0.42460   0.66540   Biso      1.000     C          -0.508372           
         C56       1.0000    0.25680   0.14880   0.44010   Biso      1.000     C          0.089433  
         C57       1.0000    0.44620   0.21920   0.49830   Biso      1.000     C          0.098076  
         C58       1.0000    0.92347   0.29130   0.85120   Biso      1.000     C          0.087769  
         C59       1.0000    0.30680   0.27620   0.43230   Biso      1.000     C          0.16238699999999998           
         C60       1.0000    0.22330   0.21030   0.41530   Biso      1.000     C          -0.209173           
         C61       1.0000    0.27340   0.34620   0.41320   Biso      1.000     C          -0.134884           
         C62       1.0000    0.69767   0.05320   0.52100   Biso      1.000     C          0.594593  
         C63       1.0000    0.81377   0.11330   0.56440   Biso      1.000     C          -0.074674           
         C64       1.0000    0.84467   0.16760   0.52200   Biso      1.000     C          0.10620299999999999           
         C65       1.0000    0.88667   0.11190   0.42870   Biso      1.000     C          -0.508526           
         C66       1.0000    0.42140   0.27930   0.47330   Biso      1.000     C          -0.181109           
         H1        1.0000    0.58383   0.36640   0.73070   Biso      1.000     H          0.149384  
         H2        1.0000    0.61543   0.35460   0.92960   Biso      1.000     H          0.136966  
         H3        1.0000    0.69123   0.35150   0.78330   Biso      1.000     H          0.141166  
         H4        1.0000    0.60633   0.27340   0.71780   Biso      1.000     H          0.158277  
         H5        1.0000    0.67343   0.62240   0.97270   Biso      1.000     H          0.129685  
         H6        1.0000    0.47913   0.61210   0.81830   Biso      1.000     H          0.135125  
         H7        1.0000    0.81443   0.51630   0.83850   Biso      1.000     H          0.128716  
         H8        1.0000    0.52823   0.62020   0.95080   Biso      1.000     H          0.113114  
         H9        1.0000    0.48093   0.31160   0.91830   Biso      1.000     H          0.158829  
         H10       1.0000    0.85503   0.47240   0.69560   Biso      1.000     H          0.103774  
         H11       1.0000    0.59053   0.26050   0.85200   Biso      1.000     H          0.154501  
         H12       1.0000    0.53513   0.57320   0.67590   Biso      1.000     H          0.09576599999999999           
         H13       1.0000    0.45663   0.47090   0.84610   Biso      1.000     H          0.08944500000000001           
         H14       1.0000    0.52457   0.78330   0.43180   Biso      1.000     H          0.14157999999999998           
         H15       1.0000    0.41717   0.73070   0.36430   Biso      1.000     H          0.150103  
         H16       1.0000    0.43967   0.71780   0.44440   Biso      1.000     H          0.15754400000000002           
         H17       1.0000    0.36847   0.67590   0.10270   Biso      1.000     H          0.096801  
         H18       1.0000    0.68837   0.69560   0.22320   Biso      1.000     H          0.103776  
         H19       1.0000    0.31247   0.81830   0.20620   Biso      1.000     H          0.13558199999999998           
         H20       1.0000    0.64777   0.83850   0.32220   Biso      1.000     H          0.12734600000000001           
         H21       1.0000    0.44877   0.92960   0.57500   Biso      1.000     H          0.136525  
         H22       1.0000    0.36157   0.95080   0.33060   Biso      1.000     H          0.113186  
         H23       1.0000    0.43153   0.32500   0.80420   Biso      1.000     H          0.06852799999999999           
         H24       1.0000    0.95663   0.52910   0.15390   Biso      1.000     H          0.08944500000000001           
         H25       1.0000    0.93153   0.67500   0.19580   Biso      1.000     H          0.06852799999999999           
         H26       1.0000    0.09053   0.73950   0.14800   Biso      1.000     H          0.154501  
         H27       1.0000    0.98093   0.68840   0.08170   Biso      1.000     H          0.158829  
         H28       1.0000    0.11543   0.64540   0.07040   Biso      1.000     H          0.136966  
         H29       1.0000    0.19123   0.64850   0.21670   Biso      1.000     H          0.141166  
         H30       1.0000    0.50677   0.97270   0.35030   Biso      1.000     H          0.131126  
         H31       1.0000    0.31427   0.91830   0.60670   Biso      1.000     H          0.158358  
         H32       1.0000    0.42387   0.85200   0.59150   Biso      1.000     H          0.154578  
         H33       1.0000    0.26487   0.80420   0.47920   Biso      1.000     H          0.068628  
         H34       1.0000    0.82920   0.55490   0.47530   Biso      1.000     H          0.264581  
         H35       1.0000    0.62330   0.62480   0.47090   Biso      1.000     H          0.089053  
         H36       1.0000    0.59820   0.52080   0.32500   Biso      1.000     H          0.068589  
         H37       1.0000    0.75720   0.40850   0.26050   Biso      1.000     H          0.155454  
         H38       1.0000    0.64760   0.39330   0.31160   Biso      1.000     H          0.158701  
         H39       1.0000    0.78210   0.42500   0.35460   Biso      1.000     H          0.136976  
         H40       1.0000    0.85790   0.56820   0.35150   Biso      1.000     H          0.141569  
         H41       1.0000    0.75050   0.63570   0.36640   Biso      1.000     H          0.149724  
         H42       1.0000    0.77300   0.55560   0.27340   Biso      1.000     H          0.15798199999999998           
         H43       1.0000    0.70180   0.89730   0.57320   Biso      1.000     H          0.095825  
         H44       1.0000    0.02170   0.77680   0.47240   Biso      1.000     H          0.10364300000000001           
         H45       1.0000    0.64580   0.79380   0.61210   Biso      1.000     H          0.134846  
         H46       1.0000    0.98110   0.67780   0.51630   Biso      1.000     H          0.129124  
         H47       1.0000    0.69490   0.66940   0.62020   Biso      1.000     H          0.11402799999999999           
         H48       1.0000    0.84010   0.64970   0.62240   Biso      1.000     H          0.129985  
         H49       1.0000    0.49587   0.92040   0.44510   Biso      1.000     H          0.264243  
         H50       1.0000    0.28997   0.84610   0.37520   Biso      1.000     H          0.090072  
         H51       1.0000    0.08383   0.63360   0.26930   Biso      1.000     H          0.149384  
         H52       1.0000    0.10633   0.72660   0.28220   Biso      1.000     H          0.158277  
         H53       1.0000    0.16253   0.52470   0.07960   Biso      1.000     H          0.264856  
         H54       1.0000    0.35503   0.52760   0.30440   Biso      1.000     H          0.103774  
         H55       1.0000    0.78997   0.15390   0.62480   Biso      1.000     H          0.090072  
         H56       1.0000    0.76487   0.19580   0.52080   Biso      1.000     H          0.068628  
         H57       1.0000    0.92387   0.14800   0.40850   Biso      1.000     H          0.154578  
         H58       1.0000    0.81427   0.08170   0.39330   Biso      1.000     H          0.158358  
         H59       1.0000    0.94877   0.07040   0.42500   Biso      1.000     H          0.136525  
         H60       1.0000    0.02457   0.21670   0.56820   Biso      1.000     H          0.14157999999999998           
         H61       1.0000    0.03513   0.42680   0.32410   Biso      1.000     H          0.09576599999999999           
         H62       1.0000    0.93967   0.28220   0.55560   Biso      1.000     H          0.15754400000000002           
         H63       1.0000    0.86847   0.32410   0.89730   Biso      1.000     H          0.096801  
         H64       1.0000    0.18837   0.30440   0.77680   Biso      1.000     H          0.103776  
         H65       1.0000    0.81247   0.18170   0.79380   Biso      1.000     H          0.13558199999999998           
         H66       1.0000    0.14777   0.16150   0.67780   Biso      1.000     H          0.12734600000000001           
         H67       1.0000    0.86157   0.04920   0.66940   Biso      1.000     H          0.113186  
         H68       1.0000    0.00677   0.02730   0.64970   Biso      1.000     H          0.131126  
         H69       1.0000    0.66253   0.47530   0.92040   Biso      1.000     H          0.264856  
         H70       1.0000    0.99587   0.07960   0.55490   Biso      1.000     H          0.264243  
         H71       1.0000    0.34010   0.35030   0.37760   Biso      1.000     H          0.129985  
         H72       1.0000    0.91717   0.26930   0.63570   Biso      1.000     H          0.150103  
         H73       1.0000    0.48110   0.32220   0.48370   Biso      1.000     H          0.129124  
         H74       1.0000    0.19490   0.33060   0.37980   Biso      1.000     H          0.11402799999999999           
         H75       1.0000    0.31443   0.48370   0.16150   Biso      1.000     H          0.128716  
         H76       1.0000    0.02823   0.37980   0.04920   Biso      1.000     H          0.113114  
         H77       1.0000    0.17343   0.37760   0.02730   Biso      1.000     H          0.129685  
         H78       1.0000    0.32920   0.44510   0.52470   Biso      1.000     H          0.264581  
         H79       1.0000    0.12330   0.37520   0.52910   Biso      1.000     H          0.089053  
         H80       1.0000    0.09820   0.47920   0.67500   Biso      1.000     H          0.068589  
         H81       1.0000    0.25720   0.59150   0.73950   Biso      1.000     H          0.155454  
         H82       1.0000    0.97913   0.38790   0.18170   Biso      1.000     H          0.135125  
         H83       1.0000    0.28210   0.57500   0.64540   Biso      1.000     H          0.136976  
         H84       1.0000    0.35790   0.43180   0.64850   Biso      1.000     H          0.141569  
         H85       1.0000    0.25050   0.36430   0.63360   Biso      1.000     H          0.149724  
         H86       1.0000    0.27300   0.44440   0.72660   Biso      1.000     H          0.15798199999999998           
         H87       1.0000    0.20180   0.10270   0.42680   Biso      1.000     H          0.095825  
         H88       1.0000    0.52170   0.22320   0.52760   Biso      1.000     H          0.10364300000000001           
         H89       1.0000    0.14580   0.20620   0.38790   Biso      1.000     H          0.134845  
         H90       1.0000    0.14760   0.60670   0.68840   Biso      1.000     H          0.158701  
         N1        1.0000    0.03057   0.32670   0.84520   Biso      1.000     N          -0.202742           
         N2        1.0000    0.08983   0.49260   0.05950   Biso      1.000     N          -0.336787           
         N3        1.0000    0.53057   0.67330   0.15480   Biso      1.000     N          -0.202742           
         N4        1.0000    0.42317   0.94050   0.43310   Biso      1.000     N          -0.33504  
         N5        1.0000    0.86390   0.84520   0.51850   Biso      1.000     N          -0.20316099999999998          
         N6        1.0000    0.75650   0.56690   0.50740   Biso      1.000     N          -0.33527199999999996          
         N7        1.0000    0.25650   0.43310   0.49260   Biso      1.000     N          -0.33527199999999996          
         N8        1.0000    0.92317   0.05950   0.56690   Biso      1.000     N          -0.33504  
         N9        1.0000    0.19723   0.48150   0.32670   Biso      1.000     N          -0.202901           
         N10       1.0000    0.58983   0.50740   0.94050   Biso      1.000     N          -0.336787           
         N11       1.0000    0.69723   0.51850   0.67330   Biso      1.000     N          -0.2029   
         N12       1.0000    0.36390   0.15480   0.48150   Biso      1.000     N          -0.20315999999999998          
         O1        1.0000    0.87443   0.48440   0.97270   Biso      1.000     O          -0.548154           
         O2        1.0000    0.59897   0.09270   0.52070   Biso      1.000     O          -0.559656           
         O3        1.0000    0.93230   0.47930   0.57200   Biso      1.000     O          -0.559882           
         O4        1.0000    0.04110   0.51170   0.48440   Biso      1.000     O          -0.548763           
         O5        1.0000    0.76563   0.57200   0.09270   Biso      1.000     O          -0.559365           
         O6        1.0000    0.09897   0.90730   0.47930   Biso      1.000     O          -0.559656           
         O7        1.0000    0.70777   0.97270   0.48830   Biso      1.000     O          -0.54783  
         O8        1.0000    0.20777   0.02730   0.51170   Biso      1.000     O          -0.54783  
         O9        1.0000    0.26563   0.42800   0.90730   Biso      1.000     O          -0.559365           
         O10       1.0000    0.54110   0.48830   0.51560   Biso      1.000     O          -0.548763           
         O11       1.0000    0.37443   0.51560   0.02730   Biso      1.000     O          -0.548154           
         O12       1.0000    0.43230   0.52070   0.42800   Biso      1.000     O          -0.559882           
         Zn1       1.0000    0.57048   0.54293   0.07072   Biso      1.000     Zn          0.69053   
         Zn2       1.0000    0.90382   0.92928   0.47221   Biso      1.000     Zn          0.6903189999999999  
         Zn3       1.0000    0.23715   0.52779   0.45707   Biso      1.000     Zn          0.6897810000000001  
         Zn4       1.0000    0.07048   0.45707   0.92928   Biso      1.000     Zn          0.69053   
         Zn5       1.0000    0.40382   0.07072   0.52779   Biso      1.000     Zn          0.6903189999999999  
         Zn6       1.0000    0.73715   0.47221   0.54293   Biso      1.000     Zn          0.6897810000000001 