
##########################################################################
#               Crystallographic Information Format file
#               Produced by PyCifRW module
#
#  This is a CIF file.  CIF has been adopted by the International
#  Union of Crystallography as the standard for data archiving and
#  transmission.
#
#  For information on this file format, follow the CIF links at
#  http://www.iucr.org
##########################################################################

data_image0

_cell_length_a                          10.4868
_cell_length_b                          17.7786
_cell_length_c                          17.7786
_cell_angle_alpha                       120
_cell_angle_beta                        90
_cell_angle_gamma                       90
_symmetry_space_group_name_H-M          'P 1'
_symmetry_int_tables_number             1
loop_
  _symmetry_equiv_pos_as_xyz
         'x, y, z' 
loop_
  _atom_site_label
  _atom_site_occupancy
  _atom_site_fract_x
  _atom_site_fract_y
  _atom_site_fract_z
  _atom_site_thermal_displace_type
  _atom_site_B_iso_or_equiv
  _atom_site_type_symbol
  _atom_site_charge
         Br1       1.0000    0.07898   0.32053   0.45179   Biso      1.000     Br          -0.513208           
         Br2       1.0000    0.74564   0.54821   0.86874   Biso      1.000     Br          -0.513312           
         Br3       1.0000    0.41231   0.13126   0.67947   Biso      1.000     Br          -0.513288           
         Br4       1.0000    0.57898   0.67947   0.54821   Biso      1.000     Br          -0.513208           
         Br5       1.0000    0.24564   0.45179   0.13126   Biso      1.000     Br          -0.513312           
         Br6       1.0000    0.91231   0.86874   0.32053   Biso      1.000     Br          -0.513288           
         C1        1.0000    0.60797   0.57130   0.68240   Biso      1.000     C          -0.510961           
         C2        1.0000    0.46213   0.46910   0.94730   Biso      1.000     C          0.602794  
         C3        1.0000    0.34573   0.45190   0.88700   Biso      1.000     C          -0.075254           
         C4        1.0000    0.31563   0.35440   0.83170   Biso      1.000     C          0.106877  
         C5        1.0000    0.27463   0.31760   0.88890   Biso      1.000     C          -0.51116  
         C6        1.0000    0.22123   0.33460   0.75920   Biso      1.000     C          -0.507285           
         C7        1.0000    0.38047   0.21850   0.49640   Biso      1.000     C          0.100287  
         C8        1.0000    0.40547   0.27890   0.47400   Biso      1.000     C          -0.181264           
         C9        1.0000    0.60177   0.20990   0.41530   Biso      1.000     C          -0.208074           
         C10       1.0000    0.51827   0.27590   0.43260   Biso      1.000     C          0.161987  
         C11       1.0000    0.21823   0.58680   0.93370   Biso      1.000     C          -0.135019           
         C12       1.0000    0.55157   0.34690   0.41320   Biso      1.000     C          -0.135025           
         C13       1.0000    0.79547   0.47820   0.53090   Biso      1.000     C          0.600418  
         C14       1.0000    0.67907   0.43510   0.54810   Biso      1.000     C          -0.074464           
         C15       1.0000    0.56867   0.14930   0.44050   Biso      1.000     C          0.093675  
         C16       1.0000    0.07213   0.52600   0.80490   Biso      1.000     C          -0.182952           
         C17       1.0000    0.23533   0.55950   0.70880   Biso      1.000     C          0.092729  
         C18       1.0000    0.26843   0.58470   0.79460   Biso      1.000     C          -0.208428           
         C19       1.0000    0.64897   0.47730   0.64560   Biso      1.000     C          0.10492   
         C20       1.0000    0.04713   0.50360   0.72210   Biso      1.000     C          0.100267  
         C21       1.0000    0.88790   0.24080   0.57540   Biso      1.000     C          -0.506195           
         C22       1.0000    0.94130   0.11110   0.42870   Biso      1.000     C          -0.510885           
         C23       1.0000    0.98230   0.16830   0.52270   Biso      1.000     C          0.106484  
         C24       1.0000    0.01240   0.11300   0.56490   Biso      1.000     C          -0.075149           
         C25       1.0000    0.12880   0.05270   0.52180   Biso      1.000     C          0.600394  
         C26       1.0000    0.88490   0.06630   0.65310   Biso      1.000     C          -0.136563           
         C27       1.0000    0.73880   0.19510   0.72110   Biso      1.000     C          -0.183066           
         C28       1.0000    0.85160   0.15670   0.72410   Biso      1.000     C          0.163088  
         C29       1.0000    0.93510   0.20540   0.79010   Biso      1.000     C          -0.207829           
         C30       1.0000    0.90200   0.29120   0.85070   Biso      1.000     C          0.092982  
         C31       1.0000    0.71380   0.27790   0.78150   Biso      1.000     C          0.099446  
         C32       1.0000    0.18493   0.56740   0.84330   Biso      1.000     C          0.163307  
         C33       1.0000    0.55457   0.42460   0.66540   Biso      1.000     C          -0.506631           
         C34       1.0000    0.43510   0.79460   0.20990   Biso      1.000     C          -0.207834           
         C35       1.0000    0.40200   0.70880   0.14930   Biso      1.000     C          0.092983  
         C36       1.0000    0.81563   0.64560   0.16830   Biso      1.000     C          0.106877  
         C37       1.0000    0.77463   0.68240   0.11110   Biso      1.000     C          -0.51116  
         C38       1.0000    0.72123   0.66540   0.24080   Biso      1.000     C          -0.507285           
         C39       1.0000    0.88047   0.78150   0.50360   Biso      1.000     C          0.100287  
         C40       1.0000    0.06867   0.85070   0.55950   Biso      1.000     C          0.093675  
         C41       1.0000    0.10177   0.79010   0.58470   Biso      1.000     C          -0.208074           
         C42       1.0000    0.84573   0.54810   0.11300   Biso      1.000     C          -0.075254           
         C43       1.0000    0.01827   0.72410   0.56740   Biso      1.000     C          0.161985  
         C44       1.0000    0.05157   0.65310   0.58680   Biso      1.000     C          -0.135025           
         C45       1.0000    0.29547   0.52180   0.46910   Biso      1.000     C          0.600418  
         C46       1.0000    0.17907   0.56490   0.45190   Biso      1.000     C          -0.074464           
         C47       1.0000    0.14897   0.52270   0.35440   Biso      1.000     C          0.10492   
         C48       1.0000    0.10797   0.42870   0.31760   Biso      1.000     C          -0.510961           
         C49       1.0000    0.05457   0.57540   0.33460   Biso      1.000     C          -0.506631           
         C50       1.0000    0.90547   0.72110   0.52600   Biso      1.000     C          -0.181261           
         C51       1.0000    0.21380   0.72210   0.21850   Biso      1.000     C          0.099422  
         C52       1.0000    0.96213   0.53090   0.05270   Biso      1.000     C          0.602794  
         C53       1.0000    0.57213   0.47400   0.19510   Biso      1.000     C          -0.182952           
         C54       1.0000    0.35160   0.84330   0.27590   Biso      1.000     C          0.16309   
         C55       1.0000    0.23880   0.80490   0.27890   Biso      1.000     C          -0.183041           
         C56       1.0000    0.38490   0.93370   0.34690   Biso      1.000     C          -0.136563           
         C57       1.0000    0.62880   0.94730   0.47820   Biso      1.000     C          0.600394  
         C58       1.0000    0.71823   0.41320   0.06630   Biso      1.000     C          -0.135019           
         C59       1.0000    0.48230   0.83170   0.47730   Biso      1.000     C          0.106484  
         C60       1.0000    0.51240   0.88700   0.43510   Biso      1.000     C          -0.075149           
         C61       1.0000    0.38790   0.75920   0.42460   Biso      1.000     C          -0.506195           
         C62       1.0000    0.54713   0.49640   0.27790   Biso      1.000     C          0.100267  
         C63       1.0000    0.73533   0.44050   0.29120   Biso      1.000     C          0.092729  
         C64       1.0000    0.76843   0.41530   0.20540   Biso      1.000     C          -0.208428           
         C65       1.0000    0.68493   0.43260   0.15670   Biso      1.000     C          0.163307  
         C66       1.0000    0.44130   0.88890   0.57130   Biso      1.000     C          -0.510885           
         H1        1.0000    0.20207   0.62560   0.47230   Biso      1.000     H          0.087031  
         H2        1.0000    0.12937   0.66880   0.62080   Biso      1.000     H          0.11463   
         H3        1.0000    0.98417   0.64860   0.62170   Biso      1.000     H          0.13021   
         H4        1.0000    0.22897   0.52170   0.32540   Biso      1.000     H          0.069422  
         H5        1.0000    0.97547   0.57990   0.36370   Biso      1.000     H          0.137917  
         H6        1.0000    0.09207   0.40310   0.25650   Biso      1.000     H          0.156797  
         H7        1.0000    0.04017   0.54710   0.27310   Biso      1.000     H          0.1577    
         H8        1.0000    0.08847   0.63250   0.35450   Biso      1.000     H          0.153851  
         H9        1.0000    0.84657   0.67730   0.51370   Biso      1.000     H          0.127506  
         H10       1.0000    0.17437   0.39700   0.32690   Biso      1.000     H          0.156914  
         H11       1.0000    0.17887   0.79460   0.61260   Biso      1.000     H          0.135542  
         H12       1.0000    0.03157   0.42670   0.34630   Biso      1.000     H          0.138641  
         H13       1.0000    0.80297   0.77890   0.47690   Biso      1.000     H          0.10037   
         H14       1.0000    0.15083   0.62170   0.97310   Biso      1.000     H          0.131044  
         H15       1.0000    0.36873   0.47230   0.84670   Biso      1.000     H          0.086741  
         H16       1.0000    0.39563   0.32540   0.80370   Biso      1.000     H          0.068837  
         H17       1.0000    0.19823   0.34630   0.91960   Biso      1.000     H          0.138614  
         H18       1.0000    0.34103   0.32690   0.92990   Biso      1.000     H          0.156523  
         H19       1.0000    0.25873   0.25650   0.85340   Biso      1.000     H          0.156876  
         H20       1.0000    0.20683   0.27310   0.72600   Biso      1.000     H          0.158089  
         H21       1.0000    0.29603   0.62080   0.95200   Biso      1.000     H          0.113849  
         H22       1.0000    0.25513   0.35450   0.72200   Biso      1.000     H          0.153404  
         H23       1.0000    0.12397   0.89660   0.57300   Biso      1.000     H          0.09186   
         H24       1.0000    0.30297   0.22110   0.52310   Biso      1.000     H          0.10037   
         H25       1.0000    0.62397   0.10340   0.42700   Biso      1.000     H          0.09186   
         H26       1.0000    0.67887   0.20540   0.38740   Biso      1.000     H          0.135542  
         H27       1.0000    0.34657   0.32270   0.48630   Biso      1.000     H          0.127506  
         H28       1.0000    0.62937   0.33120   0.37920   Biso      1.000     H          0.11463   
         H29       1.0000    0.48417   0.35140   0.37830   Biso      1.000     H          0.13021   
         H30       1.0000    0.14213   0.36370   0.78380   Biso      1.000     H          0.138249  
         H31       1.0000    0.01323   0.51370   0.83640   Biso      1.000     H          0.12831   
         H32       1.0000    0.34553   0.61260   0.81800   Biso      1.000     H          0.13544   
         H33       1.0000    0.29063   0.57300   0.67640   Biso      1.000     H          0.092561  
         H34       1.0000    0.83100   0.07960   0.55370   Biso      1.000     H          0.264386  
         H35       1.0000    0.63630   0.30200   0.77890   Biso      1.000     H          0.100275  
         H36       1.0000    0.95730   0.32360   0.89660   Biso      1.000     H          0.092316  
         H37       1.0000    0.01220   0.18200   0.79460   Biso      1.000     H          0.135442  
         H38       1.0000    0.67990   0.16360   0.67730   Biso      1.000     H          0.128754  
         H39       1.0000    0.96270   0.04800   0.66880   Biso      1.000     H          0.114475  
         H40       1.0000    0.81750   0.02690   0.64860   Biso      1.000     H          0.131249  
         H41       1.0000    0.03540   0.15330   0.62560   Biso      1.000     H          0.086589  
         H42       1.0000    0.06230   0.19630   0.52170   Biso      1.000     H          0.069072  
         H43       1.0000    0.86490   0.08040   0.42670   Biso      1.000     H          0.138934  
         H44       1.0000    0.00770   0.07010   0.39700   Biso      1.000     H          0.156588  
         H45       1.0000    0.92540   0.14660   0.40310   Biso      1.000     H          0.156696  
         H46       1.0000    0.87350   0.27400   0.54710   Biso      1.000     H          0.157654  
         H47       1.0000    0.92180   0.27800   0.63250   Biso      1.000     H          0.153815  
         H48       1.0000    0.80880   0.21620   0.57990   Biso      1.000     H          0.137225  
         H49       1.0000    0.16433   0.47410   0.92040   Biso      1.000     H          0.264203  
         H50       1.0000    0.96963   0.47690   0.69800   Biso      1.000     H          0.100287  
         H51       1.0000    0.70207   0.37440   0.52770   Biso      1.000     H          0.087031  
         H52       1.0000    0.72897   0.47830   0.67460   Biso      1.000     H          0.069422  
         H53       1.0000    0.49767   0.44630   0.52590   Biso      1.000     H          0.265097  
         H54       1.0000    0.67437   0.60300   0.67310   Biso      1.000     H          0.156914  
         H55       1.0000    0.46963   0.52310   0.30200   Biso      1.000     H          0.100287  
         H56       1.0000    0.79063   0.42700   0.32360   Biso      1.000     H          0.092561  
         H57       1.0000    0.84553   0.38740   0.18200   Biso      1.000     H          0.13544   
         H58       1.0000    0.51323   0.48630   0.16360   Biso      1.000     H          0.12831   
         H59       1.0000    0.79603   0.37920   0.04800   Biso      1.000     H          0.113848  
         H60       1.0000    0.65083   0.37830   0.02690   Biso      1.000     H          0.131044  
         H61       1.0000    0.53157   0.57330   0.65370   Biso      1.000     H          0.138641  
         H62       1.0000    0.89563   0.67460   0.19630   Biso      1.000     H          0.068837  
         H63       1.0000    0.69823   0.65370   0.08040   Biso      1.000     H          0.138614  
         H64       1.0000    0.84103   0.67310   0.07010   Biso      1.000     H          0.156523  
         H65       1.0000    0.75873   0.74350   0.14660   Biso      1.000     H          0.156876  
         H66       1.0000    0.70683   0.72690   0.27400   Biso      1.000     H          0.158089  
         H67       1.0000    0.75513   0.64550   0.27800   Biso      1.000     H          0.153404  
         H68       1.0000    0.64213   0.63630   0.21620   Biso      1.000     H          0.138249  
         H69       1.0000    0.99767   0.55370   0.47410   Biso      1.000     H          0.265097  
         H70       1.0000    0.66433   0.52590   0.07960   Biso      1.000     H          0.264203  
         H71       1.0000    0.30880   0.78380   0.42010   Biso      1.000     H          0.137225  
         H72       1.0000    0.86873   0.52770   0.15330   Biso      1.000     H          0.086741  
         H73       1.0000    0.37350   0.72600   0.45290   Biso      1.000     H          0.157654  
         H74       1.0000    0.42180   0.72200   0.36750   Biso      1.000     H          0.153815  
         H75       1.0000    0.54017   0.45290   0.72690   Biso      1.000     H          0.157699  
         H76       1.0000    0.58847   0.36750   0.64550   Biso      1.000     H          0.153851  
         H77       1.0000    0.47547   0.42010   0.63630   Biso      1.000     H          0.137917  
         H78       1.0000    0.33100   0.92040   0.44630   Biso      1.000     H          0.264386  
         H79       1.0000    0.13630   0.69800   0.22110   Biso      1.000     H          0.100276  
         H80       1.0000    0.45730   0.67640   0.10340   Biso      1.000     H          0.092316  
         H81       1.0000    0.51220   0.81800   0.20540   Biso      1.000     H          0.135442  
         H82       1.0000    0.59207   0.59690   0.74350   Biso      1.000     H          0.156797  
         H83       1.0000    0.46270   0.95200   0.33120   Biso      1.000     H          0.114475  
         H84       1.0000    0.31750   0.97310   0.35140   Biso      1.000     H          0.131249  
         H85       1.0000    0.53540   0.84670   0.37440   Biso      1.000     H          0.086589  
         H86       1.0000    0.56230   0.80370   0.47830   Biso      1.000     H          0.069072  
         H87       1.0000    0.36490   0.91960   0.57330   Biso      1.000     H          0.138934  
         H88       1.0000    0.50770   0.92990   0.60300   Biso      1.000     H          0.156588  
         H89       1.0000    0.42540   0.85340   0.59690   Biso      1.000     H          0.156696  
         H90       1.0000    0.17990   0.83640   0.32270   Biso      1.000     H          0.128752  
         N1        1.0000    0.73643   0.49340   0.05940   Biso      1.000     N          -0.335631           
         N2        1.0000    0.46287   0.15470   0.48220   Biso      1.000     N          -0.202876           
         N3        1.0000    0.23643   0.50660   0.94060   Biso      1.000     N          -0.335631           
         N4        1.0000    0.12953   0.51780   0.67250   Biso      1.000     N          -0.202127           
         N5        1.0000    0.90310   0.05940   0.56600   Biso      1.000     N          -0.335087           
         N6        1.0000    0.79620   0.32750   0.84530   Biso      1.000     N          -0.201827           
         N7        1.0000    0.29620   0.67250   0.15470   Biso      1.000     N          -0.201824           
         N8        1.0000    0.62953   0.48220   0.32750   Biso      1.000     N          -0.202127           
         N9        1.0000    0.56977   0.43400   0.49340   Biso      1.000     N          -0.335647           
         N10       1.0000    0.96287   0.84530   0.51780   Biso      1.000     N          -0.202876           
         N11       1.0000    0.06977   0.56600   0.50660   Biso      1.000     N          -0.335647           
         N12       1.0000    0.40310   0.94060   0.43400   Biso      1.000     N          -0.335087           
         O1        1.0000    0.78467   0.51120   0.48490   Biso      1.000     O          -0.543649           
         O2        1.0000    0.06133   0.57010   0.09210   Biso      1.000     O          -0.569565           
         O3        1.0000    0.72800   0.90790   0.47800   Biso      1.000     O          -0.568595           
         O4        1.0000    0.61800   0.02630   0.51120   Biso      1.000     O          -0.543392           
         O5        1.0000    0.89467   0.47800   0.57010   Biso      1.000     O          -0.568817           
         O6        1.0000    0.56133   0.42990   0.90790   Biso      1.000     O          -0.569566           
         O7        1.0000    0.95133   0.48490   0.97370   Biso      1.000     O          -0.544588           
         O8        1.0000    0.45133   0.51510   0.02630   Biso      1.000     O          -0.544588           
         O9        1.0000    0.39467   0.52200   0.42990   Biso      1.000     O          -0.568817           
         O10       1.0000    0.11800   0.97370   0.48880   Biso      1.000     O          -0.543392           
         O11       1.0000    0.28467   0.48880   0.51510   Biso      1.000     O          -0.543649           
         O12       1.0000    0.22800   0.09210   0.52200   Biso      1.000     O          -0.568595           
         Zn1       1.0000    0.08943   0.47219   0.54262   Biso      1.000     Zn          0.695872  
         Zn2       1.0000    0.75609   0.45738   0.92957   Biso      1.000     Zn          0.69623   
         Zn3       1.0000    0.42276   0.07043   0.52781   Biso      1.000     Zn          0.696072  
         Zn4       1.0000    0.58943   0.52781   0.45738   Biso      1.000     Zn          0.695872  
         Zn5       1.0000    0.25609   0.54262   0.07043   Biso      1.000     Zn          0.69623   
         Zn6       1.0000    0.92276   0.92957   0.47219   Biso      1.000     Zn          0.696072 