
##########################################################################
#               Crystallographic Information Format file
#               Produced by PyCifRW module
#
#  This is a CIF file.  CIF has been adopted by the International
#  Union of Crystallography as the standard for data archiving and
#  transmission.
#
#  For information on this file format, follow the CIF links at
#  http://www.iucr.org
##########################################################################

data_image0

_cell_length_a                          10.585
_cell_length_b                          17.703
_cell_length_c                          17.703
_cell_angle_alpha                       120
_cell_angle_beta                        90
_cell_angle_gamma                       90
_symmetry_space_group_name_H-M          'P 1'
_symmetry_int_tables_number             1
loop_
  _symmetry_equiv_pos_as_xyz
         'x, y, z' 
loop_
  _atom_site_label
  _atom_site_occupancy
  _atom_site_fract_x
  _atom_site_fract_y
  _atom_site_fract_z
  _atom_site_thermal_displace_type
  _atom_site_B_iso_or_equiv
  _atom_site_type_symbol
  _atom_site_charge
         C1        1.0000    0.65407   0.24180   0.57150   Biso      1.000     C          -0.5065970000000001           
         C2        1.0000    0.41463   0.48050   0.64770   Biso      1.000     C          0.10374100000000001           
         C3        1.0000    0.32073   0.42850   0.67030   Biso      1.000     C          -0.510746           
         C4        1.0000    0.37533   0.57440   0.68550   Biso      1.000     C          -0.509342           
         C5        1.0000    0.89147   0.05380   0.52190   Biso      1.000     C          0.5982609999999999  
         C6        1.0000    0.64537   0.06550   0.64850   Biso      1.000     C          -0.13685799999999998          
         C7        1.0000    0.61347   0.15610   0.72080   Biso      1.000     C          0.159971  
         C8        1.0000    0.44183   0.43630   0.54990   Biso      1.000     C          -0.072918           
         C9        1.0000    0.49977   0.19650   0.71630   Biso      1.000     C          -0.1814   
         C10       1.0000    0.66217   0.29090   0.84930   Biso      1.000     C          0.09285700000000001           
         C11       1.0000    0.47637   0.28200   0.77820   Biso      1.000     C          0.09512899999999999           
         C12       1.0000    0.77517   0.11360   0.56370   Biso      1.000     C          -0.075061           
         C13       1.0000    0.74797   0.16720   0.51950   Biso      1.000     C          0.103804  
         C14       1.0000    0.70867   0.11110   0.42560   Biso      1.000     C          -0.5080600000000001           
         C15       1.0000    0.72480   0.53190   0.05380   Biso      1.000     C          0.59764   
         C16       1.0000    0.69407   0.20560   0.78940   Biso      1.000     C          -0.20895  
         C17       1.0000    0.14303   0.22180   0.50380   Biso      1.000     C          0.09402100000000001           
         C18       1.0000    0.32883   0.15070   0.44160   Biso      1.000     C          0.09251000000000001           
         C19       1.0000    0.36073   0.21060   0.41620   Biso      1.000     C          -0.20636100000000002          
         C20       1.0000    0.22480   0.46810   0.94620   Biso      1.000     C          0.59764   
         C21       1.0000    0.97870   0.58300   0.93450   Biso      1.000     C          -0.135008           
         C22       1.0000    0.94680   0.56470   0.84390   Biso      1.000     C          0.15834   
         C23       1.0000    0.83310   0.51980   0.80350   Biso      1.000     C          -0.180449           
         C24       1.0000    0.02740   0.58380   0.79440   Biso      1.000     C          -0.20684499999999997          
         C25       1.0000    0.99550   0.55840   0.70910   Biso      1.000     C          0.091877  
         C26       1.0000    0.80970   0.49620   0.71800   Biso      1.000     C          0.094334  
         C27       1.0000    0.10850   0.45010   0.88640   Biso      1.000     C          -0.07501000000000001          
         C28       1.0000    0.08130   0.35230   0.83280   Biso      1.000     C          0.103941  
         C29       1.0000    0.98740   0.32970   0.75820   Biso      1.000     C          -0.5071939999999999           
         C30       1.0000    0.04200   0.31450   0.88890   Biso      1.000     C          -0.5079   
         C31       1.0000    0.55813   0.47810   0.53190   Biso      1.000     C          0.59695   
         C32       1.0000    0.31203   0.35150   0.41700   Biso      1.000     C          -0.134042           
         C33       1.0000    0.28013   0.27920   0.43530   Biso      1.000     C          0.158655  
         C34       1.0000    0.16643   0.28370   0.48020   Biso      1.000     C          -0.18053  
         C35       1.0000    0.47870   0.41700   0.06550   Biso      1.000     C          -0.135008           
         C36       1.0000    0.33310   0.48020   0.19650   Biso      1.000     C          -0.180449           
         C37       1.0000    0.44680   0.43530   0.15610   Biso      1.000     C          0.15834   
         C38       1.0000    0.39147   0.94620   0.47810   Biso      1.000     C          0.5982609999999999  
         C39       1.0000    0.20867   0.88890   0.57440   Biso      1.000     C          -0.5080600000000001           
         C40       1.0000    0.15407   0.75820   0.42850   Biso      1.000     C          -0.5065970000000001           
         C41       1.0000    0.24797   0.83280   0.48050   Biso      1.000     C          0.103804  
         C42       1.0000    0.27517   0.88640   0.43630   Biso      1.000     C          -0.075061           
         C43       1.0000    0.97637   0.71800   0.22180   Biso      1.000     C          0.095126  
         C44       1.0000    0.16217   0.70910   0.15070   Biso      1.000     C          0.09285700000000001           
         C45       1.0000    0.19407   0.79440   0.21060   Biso      1.000     C          -0.208954           
         C46       1.0000    0.99977   0.80350   0.28370   Biso      1.000     C          -0.181398           
         C47       1.0000    0.11347   0.84390   0.27920   Biso      1.000     C          0.159974  
         C48       1.0000    0.14537   0.93450   0.35150   Biso      1.000     C          -0.13685799999999998          
         C49       1.0000    0.52740   0.41620   0.20560   Biso      1.000     C          -0.20684499999999997          
         C50       1.0000    0.87533   0.42560   0.31450   Biso      1.000     C          -0.509342           
         C51       1.0000    0.91463   0.51950   0.35230   Biso      1.000     C          0.10374100000000001           
         C52       1.0000    0.94183   0.56370   0.45010   Biso      1.000     C          -0.072918           
         C53       1.0000    0.82073   0.57150   0.32970   Biso      1.000     C          -0.510746           
         C54       1.0000    0.82883   0.84930   0.55840   Biso      1.000     C          0.09251000000000001           
         C55       1.0000    0.49550   0.44160   0.29090   Biso      1.000     C          0.091877  
         C56       1.0000    0.30970   0.50380   0.28200   Biso      1.000     C          0.094334  
         C57       1.0000    0.60850   0.54990   0.11360   Biso      1.000     C          -0.07501000000000001          
         C58       1.0000    0.64303   0.77820   0.49620   Biso      1.000     C          0.09402100000000001           
         C59       1.0000    0.48740   0.67030   0.24180   Biso      1.000     C          -0.5071939999999999           
         C60       1.0000    0.54200   0.68550   0.11110   Biso      1.000     C          -0.5079   
         C61       1.0000    0.58130   0.64770   0.16720   Biso      1.000     C          0.103941  
         C62       1.0000    0.81203   0.64850   0.58300   Biso      1.000     C          -0.134042           
         C63       1.0000    0.78013   0.72080   0.56470   Biso      1.000     C          0.158654  
         C64       1.0000    0.66643   0.71630   0.51980   Biso      1.000     C          -0.18053  
         C65       1.0000    0.86073   0.78940   0.58380   Biso      1.000     C          -0.20635900000000001          
         C66       1.0000    0.05813   0.52190   0.46810   Biso      1.000     C          0.59695   
         Cl1       1.0000    0.85343   0.32324   0.45440   Biso      1.000     Cl          -0.544812           
         Cl2       1.0000    0.02010   0.45440   0.13116   Biso      1.000     Cl          -0.545078           
         Cl3       1.0000    0.35343   0.67676   0.54560   Biso      1.000     Cl          -0.544812           
         Cl4       1.0000    0.68677   0.86884   0.32324   Biso      1.000     Cl          -0.545195           
         Cl5       1.0000    0.52010   0.54560   0.86884   Biso      1.000     Cl          -0.545078           
         Cl6       1.0000    0.18677   0.13116   0.67676   Biso      1.000     Cl          -0.545195           
         H1        1.0000    0.90237   0.69200   0.22600   Biso      1.000     H          0.105125  
         H2        1.0000    0.29607   0.84540   0.37520   Biso      1.000     H          0.09026   
         H3        1.0000    0.21767   0.67730   0.10480   Biso      1.000     H          0.09287999999999999           
         H4        1.0000    0.32797   0.80520   0.48110   Biso      1.000     H          0.070476  
         H5        1.0000    0.18597   0.85250   0.59810   Biso      1.000     H          0.15833699999999998           
         H6        1.0000    0.18627   0.72120   0.37080   Biso      1.000     H          0.15274000000000001           
         H7        1.0000    0.13747   0.92400   0.57770   Biso      1.000     H          0.139577  
         H8        1.0000    0.27767   0.92620   0.60730   Biso      1.000     H          0.158621  
         H9        1.0000    0.26917   0.81820   0.20470   Biso      1.000     H          0.1374    
         H10       1.0000    0.14307   0.72490   0.45730   Biso      1.000     H          0.159236  
         H11       1.0000    0.94177   0.83460   0.32810   Biso      1.000     H          0.134247  
         H12       1.0000    0.07427   0.78210   0.42510   Biso      1.000     H          0.13631300000000002           
         H13       1.0000    0.22157   0.95410   0.33590   Biso      1.000     H          0.113943  
         H14       1.0000    0.06903   0.22600   0.53400   Biso      1.000     H          0.105452  
         H15       1.0000    0.46273   0.37520   0.52980   Biso      1.000     H          0.09013600000000001           
         H16       1.0000    0.49463   0.48110   0.67590   Biso      1.000     H          0.070664  
         H17       1.0000    0.24093   0.42510   0.64300   Biso      1.000     H          0.13744   
         H18       1.0000    0.30973   0.45730   0.73240   Biso      1.000     H          0.160467  
         H19       1.0000    0.35293   0.37080   0.64960   Biso      1.000     H          0.153868  
         H20       1.0000    0.30413   0.57770   0.65370   Biso      1.000     H          0.140279  
         H21       1.0000    0.38433   0.10480   0.42750   Biso      1.000     H          0.091869  
         H22       1.0000    0.44433   0.60730   0.68110   Biso      1.000     H          0.158881  
         H23       1.0000    0.07747   0.97380   0.35710   Biso      1.000     H          0.131772  
         H24       1.0000    0.72157   0.04590   0.66410   Biso      1.000     H          0.113943  
         H25       1.0000    0.57747   0.02620   0.64290   Biso      1.000     H          0.131772  
         H26       1.0000    0.44177   0.16540   0.67190   Biso      1.000     H          0.134247  
         H27       1.0000    0.76917   0.18180   0.79530   Biso      1.000     H          0.137399  
         H28       1.0000    0.71767   0.32270   0.89520   Biso      1.000     H          0.09287999999999999           
         H29       1.0000    0.40237   0.30800   0.77400   Biso      1.000     H          0.105125  
         H30       1.0000    0.35263   0.59810   0.74560   Biso      1.000     H          0.15850799999999998           
         H31       1.0000    0.43583   0.20470   0.38650   Biso      1.000     H          0.13655799999999998           
         H32       1.0000    0.10843   0.32810   0.49350   Biso      1.000     H          0.13409400000000002           
         H33       1.0000    0.24413   0.35710   0.38330   Biso      1.000     H          0.130712  
         H34       1.0000    0.92770   0.46900   0.91870   Biso      1.000     H          0.264921  
         H35       1.0000    0.05490   0.61820   0.95410   Biso      1.000     H          0.113326  
         H36       1.0000    0.91080   0.61670   0.97380   Biso      1.000     H          0.131413  
         H37       1.0000    0.77510   0.50650   0.83460   Biso      1.000     H          0.133877  
         H38       1.0000    0.10250   0.61350   0.81820   Biso      1.000     H          0.136791  
         H39       1.0000    0.05100   0.57250   0.67730   Biso      1.000     H          0.093416  
         H40       1.0000    0.73570   0.46600   0.69200   Biso      1.000     H          0.105755  
         H41       1.0000    0.12940   0.47020   0.84540   Biso      1.000     H          0.090182  
         H42       1.0000    0.16130   0.32410   0.80520   Biso      1.000     H          0.070898  
         H43       1.0000    0.90760   0.35700   0.78210   Biso      1.000     H          0.13667200000000002           
         H44       1.0000    0.97640   0.26760   0.72490   Biso      1.000     H          0.158959  
         H45       1.0000    0.01960   0.35040   0.72120   Biso      1.000     H          0.153054  
         H46       1.0000    0.97080   0.34630   0.92400   Biso      1.000     H          0.139102  
         H47       1.0000    0.11100   0.31890   0.92620   Biso      1.000     H          0.15794   
         H48       1.0000    0.01930   0.25440   0.85250   Biso      1.000     H          0.15922999999999998           
         H49       1.0000    0.26103   0.44970   0.53100   Biso      1.000     H          0.264125  
         H50       1.0000    0.38823   0.33590   0.38180   Biso      1.000     H          0.11266   
         H51       1.0000    0.79607   0.15460   0.62480   Biso      1.000     H          0.09026   
         H52       1.0000    0.82797   0.19480   0.51890   Biso      1.000     H          0.070476  
         H53       1.0000    0.59437   0.08130   0.55030   Biso      1.000     H          0.264234  
         H54       1.0000    0.64307   0.27510   0.54270   Biso      1.000     H          0.159236  
         H55       1.0000    0.88823   0.66410   0.61820   Biso      1.000     H          0.11266   
         H56       1.0000    0.74413   0.64290   0.61670   Biso      1.000     H          0.130712  
         H57       1.0000    0.60843   0.67190   0.50650   Biso      1.000     H          0.13409400000000002           
         H58       1.0000    0.93583   0.79530   0.61350   Biso      1.000     H          0.13655799999999998           
         H59       1.0000    0.88433   0.89520   0.57250   Biso      1.000     H          0.091869  
         H60       1.0000    0.56903   0.77400   0.46600   Biso      1.000     H          0.105452  
         H61       1.0000    0.57427   0.21790   0.57490   Biso      1.000     H          0.13631300000000002           
         H62       1.0000    0.99463   0.51890   0.32410   Biso      1.000     H          0.070664  
         H63       1.0000    0.74093   0.57490   0.35700   Biso      1.000     H          0.13744   
         H64       1.0000    0.80973   0.54270   0.26760   Biso      1.000     H          0.160467  
         H65       1.0000    0.85293   0.62920   0.35040   Biso      1.000     H          0.153868  
         H66       1.0000    0.80413   0.42230   0.34630   Biso      1.000     H          0.140279  
         H67       1.0000    0.94433   0.39270   0.31890   Biso      1.000     H          0.158881  
         H68       1.0000    0.85263   0.40190   0.25440   Biso      1.000     H          0.15850799999999998           
         H69       1.0000    0.09437   0.91870   0.44970   Biso      1.000     H          0.264234  
         H70       1.0000    0.76103   0.55030   0.46900   Biso      1.000     H          0.264125  
         H71       1.0000    0.51930   0.74560   0.14750   Biso      1.000     H          0.15922999999999998           
         H72       1.0000    0.96273   0.62480   0.47020   Biso      1.000     H          0.09013600000000001           
         H73       1.0000    0.47080   0.65370   0.07600   Biso      1.000     H          0.139102  
         H74       1.0000    0.61100   0.68110   0.07380   Biso      1.000     H          0.15794   
         H75       1.0000    0.63747   0.07600   0.42230   Biso      1.000     H          0.139577  
         H76       1.0000    0.77767   0.07380   0.39270   Biso      1.000     H          0.158621  
         H77       1.0000    0.68597   0.14750   0.40190   Biso      1.000     H          0.15833699999999998           
         H78       1.0000    0.42770   0.53100   0.08130   Biso      1.000     H          0.264921  
         H79       1.0000    0.55490   0.38180   0.04590   Biso      1.000     H          0.113326  
         H80       1.0000    0.27510   0.49350   0.16540   Biso      1.000     H          0.133877  
         H81       1.0000    0.60250   0.38650   0.18180   Biso      1.000     H          0.136791  
         H82       1.0000    0.41080   0.38330   0.02620   Biso      1.000     H          0.131413  
         H83       1.0000    0.55100   0.42750   0.32270   Biso      1.000     H          0.093416  
         H84       1.0000    0.23570   0.53400   0.30800   Biso      1.000     H          0.105755  
         H85       1.0000    0.62940   0.52980   0.15460   Biso      1.000     H          0.090182  
         H86       1.0000    0.66130   0.67590   0.19480   Biso      1.000     H          0.070898  
         H87       1.0000    0.40760   0.64300   0.21790   Biso      1.000     H          0.13667200000000002           
         H88       1.0000    0.47640   0.73240   0.27510   Biso      1.000     H          0.158959  
         H89       1.0000    0.51960   0.64960   0.27880   Biso      1.000     H          0.153054  
         H90       1.0000    0.68627   0.27880   0.62920   Biso      1.000     H          0.152739  
         N1        1.0000    0.49840   0.49740   0.06060   Biso      1.000     N          -0.337665           
         N2        1.0000    0.16507   0.93940   0.43680   Biso      1.000     N          -0.33652  
         N3        1.0000    0.05767   0.66970   0.15450   Biso      1.000     N          -0.20965999999999999          
         N4        1.0000    0.83173   0.56320   0.50260   Biso      1.000     N          -0.33776100000000003          
         N5        1.0000    0.72433   0.84550   0.51520   Biso      1.000     N          -0.20891300000000002          
         N6        1.0000    0.39100   0.48480   0.33030   Biso      1.000     N          -0.21005100000000002          
         N7        1.0000    0.89100   0.51520   0.66970   Biso      1.000     N          -0.210052           
         N8        1.0000    0.55767   0.33030   0.84550   Biso      1.000     N          -0.20966100000000001          
         N9        1.0000    0.33173   0.43680   0.49740   Biso      1.000     N          -0.33776100000000003          
         N10       1.0000    0.22433   0.15450   0.48480   Biso      1.000     N          -0.20891300000000002          
         N11       1.0000    0.99840   0.50260   0.93940   Biso      1.000     N          -0.337665           
         N12       1.0000    0.66507   0.06060   0.56320   Biso      1.000     N          -0.33652  
         O1        1.0000    0.54703   0.51180   0.48510   Biso      1.000     O          -0.549569           
         O2        1.0000    0.99197   0.09370   0.52750   Biso      1.000     O          -0.565277           
         O3        1.0000    0.88037   0.97330   0.48820   Biso      1.000     O          -0.55019  
         O4        1.0000    0.82530   0.56620   0.09370   Biso      1.000     O          -0.564966           
         O5        1.0000    0.71370   0.48510   0.97330   Biso      1.000     O          -0.549788           
         O6        1.0000    0.15863   0.52750   0.43380   Biso      1.000     O          -0.564699           
         O7        1.0000    0.04703   0.48820   0.51490   Biso      1.000     O          -0.54957  
         O8        1.0000    0.65863   0.47250   0.56620   Biso      1.000     O          -0.564699           
         O9        1.0000    0.38037   0.02670   0.51180   Biso      1.000     O          -0.55019  
         O10       1.0000    0.32530   0.43380   0.90630   Biso      1.000     O          -0.564966           
         O11       1.0000    0.49197   0.90630   0.47250   Biso      1.000     O          -0.565278           
         O12       1.0000    0.21370   0.51490   0.02670   Biso      1.000     O          -0.549788           
         Zn1       1.0000    0.18613   0.07109   0.53095   Biso      1.000     Zn          0.728485  
         Zn2       1.0000    0.85279   0.46905   0.54014   Biso      1.000     Zn          0.728137  
         Zn3       1.0000    0.51946   0.45986   0.92891   Biso      1.000     Zn          0.728358  
         Zn4       1.0000    0.68613   0.92891   0.46905   Biso      1.000     Zn          0.728485  
         Zn5       1.0000    0.35279   0.53095   0.45986   Biso      1.000     Zn          0.728136  
         Zn6       1.0000    0.01946   0.54014   0.07109   Biso      1.000     Zn          0.728358 