
##########################################################################
#               Crystallographic Information Format file
#               Produced by PyCifRW module
#
#  This is a CIF file.  CIF has been adopted by the International
#  Union of Crystallography as the standard for data archiving and
#  transmission.
#
#  For information on this file format, follow the CIF links at
#  http://www.iucr.org
##########################################################################

data_image0

_cell_length_a                          10.5617
_cell_length_b                          17.691
_cell_length_c                          17.691
_cell_angle_alpha                       120
_cell_angle_beta                        90
_cell_angle_gamma                       90
_symmetry_space_group_name_H-M          'P 1'
_symmetry_int_tables_number             1
loop_
  _symmetry_equiv_pos_as_xyz
         'x, y, z' 
loop_
  _atom_site_label
  _atom_site_occupancy
  _atom_site_fract_x
  _atom_site_fract_y
  _atom_site_fract_z
  _atom_site_thermal_displace_type
  _atom_site_B_iso_or_equiv
  _atom_site_type_symbol
  _atom_site_charge
         C1        1.0000    0.19433   0.11170   0.42590   Biso      1.000     C          -0.5050359999999999           
         C2        1.0000    0.48667   0.48040   0.64740   Biso      1.000     C          0.102654  
         C3        1.0000    0.52767   0.57410   0.68580   Biso      1.000     C          -0.508587           
         C4        1.0000    0.58217   0.42970   0.67070   Biso      1.000     C          -0.510541           
         C5        1.0000    0.42583   0.28220   0.77930   Biso      1.000     C          0.10140700000000001           
         C6        1.0000    0.23873   0.29070   0.84940   Biso      1.000     C          0.08667899999999999           
         C7        1.0000    0.20763   0.20570   0.78990   Biso      1.000     C          -0.20643699999999998          
         C8        1.0000    0.46047   0.43610   0.54949   Biso      1.000     C          -0.07395800000000001          
         C9        1.0000    0.28873   0.15650   0.72090   Biso      1.000     C          0.161079  
         C10       1.0000    0.25633   0.06580   0.64910   Biso      1.000     C          -0.13722  
         C11       1.0000    0.01023   0.05410   0.52220   Biso      1.000     C          0.599489  
         C12       1.0000    0.12713   0.11339   0.56390   Biso      1.000     C          -0.07075  
         C13       1.0000    0.15333   0.16700   0.51960   Biso      1.000     C          0.10030499999999999           
         C14       1.0000    0.24883   0.24100   0.57030   Biso      1.000     C          -0.510187           
         C15       1.0000    0.59250   0.50290   0.28220   Biso      1.000     C          0.100751  
         C16       1.0000    0.40133   0.19660   0.71710   Biso      1.000     C          -0.182759           
         C17       1.0000    0.34357   0.47780   0.53190   Biso      1.000     C          0.599525  
         C18       1.0000    0.58967   0.35090   0.41670   Biso      1.000     C          -0.13459000000000002          
         C19       1.0000    0.73467   0.28290   0.47950   Biso      1.000     C          -0.181196           
         C20       1.0000    0.09250   0.49710   0.71780   Biso      1.000     C          0.100751  
         C21       1.0000    0.90540   0.55870   0.70930   Biso      1.000     C          0.08475   
         C22       1.0000    0.87430   0.58420   0.79430   Biso      1.000     C          -0.204621           
         C23       1.0000    0.95540   0.56440   0.84350   Biso      1.000     C          0.159349  
         C24       1.0000    0.06800   0.52050   0.80340   Biso      1.000     C          -0.179361           
         C25       1.0000    0.92300   0.58330   0.93420   Biso      1.000     C          -0.136548           
         C26       1.0000    0.67690   0.46810   0.94590   Biso      1.000     C          0.5993029999999999  
         C27       1.0000    0.79380   0.45051   0.88661   Biso      1.000     C          -0.07289  
         C28       1.0000    0.82000   0.35260   0.83300   Biso      1.000     C          0.102188  
         C29       1.0000    0.86100   0.31420   0.88830   Biso      1.000     C          -0.508372           
         C30       1.0000    0.91550   0.32930   0.75900   Biso      1.000     C          -0.510622           
         C31       1.0000    0.75917   0.22070   0.50290   Biso      1.000     C          0.101743  
         C32       1.0000    0.57207   0.15060   0.44130   Biso      1.000     C          0.086925  
         C33       1.0000    0.54097   0.21010   0.41580   Biso      1.000     C          -0.20510599999999998          
         C34       1.0000    0.62207   0.27910   0.43560   Biso      1.000     C          0.15878599999999998           
         C35       1.0000    0.40540   0.44130   0.29070   Biso      1.000     C          0.08475   
         C36       1.0000    0.45540   0.43560   0.15650   Biso      1.000     C          0.15934700000000002           
         C37       1.0000    0.37430   0.41580   0.20570   Biso      1.000     C          -0.204618           
         C38       1.0000    0.92583   0.71780   0.22070   Biso      1.000     C          0.10140700000000001           
         C39       1.0000    0.74883   0.75900   0.42970   Biso      1.000     C          -0.510187           
         C40       1.0000    0.69433   0.88830   0.57410   Biso      1.000     C          -0.5050359999999999           
         C41       1.0000    0.65333   0.83300   0.48040   Biso      1.000     C          0.10030499999999999           
         C42       1.0000    0.62713   0.88661   0.43610   Biso      1.000     C          -0.07075  
         C43       1.0000    0.51023   0.94590   0.47780   Biso      1.000     C          0.599489  
         C44       1.0000    0.75633   0.93420   0.35090   Biso      1.000     C          -0.13722  
         C45       1.0000    0.90133   0.80340   0.28290   Biso      1.000     C          -0.182759           
         C46       1.0000    0.78873   0.84350   0.27910   Biso      1.000     C          0.161077  
         C47       1.0000    0.70763   0.79430   0.21010   Biso      1.000     C          -0.206436           
         C48       1.0000    0.73873   0.70930   0.15060   Biso      1.000     C          0.08668   
         C49       1.0000    0.56800   0.47950   0.19660   Biso      1.000     C          -0.179361           
         C50       1.0000    0.08217   0.57030   0.32930   Biso      1.000     C          -0.510542           
         C51       1.0000    0.98667   0.51960   0.35260   Biso      1.000     C          0.102654  
         C52       1.0000    0.96047   0.56390   0.45051   Biso      1.000     C          -0.07395800000000001          
         C53       1.0000    0.02767   0.42590   0.31420   Biso      1.000     C          -0.508587           
         C54       1.0000    0.08967   0.64910   0.58330   Biso      1.000     C          -0.13459000000000002          
         C55       1.0000    0.42300   0.41670   0.06580   Biso      1.000     C          -0.136548           
         C56       1.0000    0.17690   0.53190   0.05410   Biso      1.000     C          0.5993029999999999  
         C57       1.0000    0.29380   0.54949   0.11339   Biso      1.000     C          -0.07289  
         C58       1.0000    0.84357   0.52220   0.46810   Biso      1.000     C          0.599525  
         C59       1.0000    0.36100   0.68580   0.11170   Biso      1.000     C          -0.508372           
         C60       1.0000    0.41550   0.67070   0.24100   Biso      1.000     C          -0.510622           
         C61       1.0000    0.32000   0.64740   0.16700   Biso      1.000     C          0.102188  
         C62       1.0000    0.07207   0.84940   0.55870   Biso      1.000     C          0.086925  
         C63       1.0000    0.04097   0.78990   0.58420   Biso      1.000     C          -0.20510599999999998          
         C64       1.0000    0.12207   0.72090   0.56440   Biso      1.000     C          0.15878599999999998           
         C65       1.0000    0.23467   0.71710   0.52050   Biso      1.000     C          -0.181196           
         C66       1.0000    0.25917   0.77930   0.49710   Biso      1.000     C          0.101743  
         Cl1       1.0000    0.04785   0.32402   0.45509   Biso      1.000     Cl          -0.544908           
         Cl2       1.0000    0.88118   0.45509   0.13107   Biso      1.000     Cl          -0.544783           
         Cl3       1.0000    0.54785   0.67598   0.54491   Biso      1.000     Cl          -0.544908           
         Cl4       1.0000    0.21451   0.86893   0.32402   Biso      1.000     Cl          -0.544931           
         Cl5       1.0000    0.38118   0.54491   0.86893   Biso      1.000     Cl          -0.544783           
         Cl6       1.0000    0.71451   0.13107   0.67598   Biso      1.000     Cl          -0.544931           
         H1        1.0000    0.67993   0.95350   0.33510   Biso      1.000     H          0.115093  
         H2        1.0000    0.60643   0.84560   0.37500   Biso      1.000     H          0.088514  
         H3        1.0000    0.82413   0.97350   0.35640   Biso      1.000     H          0.131643  
         H4        1.0000    0.57313   0.80540   0.48100   Biso      1.000     H          0.071314  
         H5        1.0000    0.75433   0.72310   0.45610   Biso      1.000     H          0.16073900000000002           
         H6        1.0000    0.76563   0.92340   0.57720   Biso      1.000     H          0.13918699999999998           
         H7        1.0000    0.83053   0.78340   0.43100   Biso      1.000     H          0.138851  
         H8        1.0000    0.72123   0.72410   0.37020   Biso      1.000     H          0.15066   
         H9        1.0000    0.95943   0.83450   0.32730   Biso      1.000     H          0.133721  
         H10       1.0000    0.62573   0.92540   0.60780   Biso      1.000     H          0.15628399999999998           
         H11       1.0000    0.63283   0.81860   0.20410   Biso      1.000     H          0.13663   
         H12       1.0000    0.71783   0.85110   0.59690   Biso      1.000     H          0.158133  
         H13       1.0000    0.00073   0.69220   0.22430   Biso      1.000     H          0.105174  
         H14       1.0000    0.51327   0.33510   0.38160   Biso      1.000     H          0.11404600000000001           
         H15       1.0000    0.43977   0.37500   0.52940   Biso      1.000     H          0.08931499999999999           
         H16       1.0000    0.40647   0.48100   0.67560   Biso      1.000     H          0.07148   
         H17       1.0000    0.55117   0.59690   0.74580   Biso      1.000     H          0.15826099999999999           
         H18       1.0000    0.45907   0.60780   0.68240   Biso      1.000     H          0.157818  
         H19       1.0000    0.59897   0.57720   0.65380   Biso      1.000     H          0.140146  
         H20       1.0000    0.66387   0.43100   0.64760   Biso      1.000     H          0.139234  
         H21       1.0000    0.65747   0.35640   0.38290   Biso      1.000     H          0.130657  
         H22       1.0000    0.55457   0.37020   0.64610   Biso      1.000     H          0.15021099999999998           
         H23       1.0000    0.68303   0.67730   0.10480   Biso      1.000     H          0.093561  
         H24       1.0000    0.50073   0.30780   0.77570   Biso      1.000     H          0.105174  
         H25       1.0000    0.18303   0.32270   0.89520   Biso      1.000     H          0.093561  
         H26       1.0000    0.13283   0.18140   0.79590   Biso      1.000     H          0.13663   
         H27       1.0000    0.45943   0.16550   0.67270   Biso      1.000     H          0.133721  
         H28       1.0000    0.32413   0.02650   0.64360   Biso      1.000     H          0.131643  
         H29       1.0000    0.17993   0.04650   0.66490   Biso      1.000     H          0.115093  
         H30       1.0000    0.58767   0.45610   0.73300   Biso      1.000     H          0.160616  
         H31       1.0000    0.79277   0.32730   0.49280   Biso      1.000     H          0.13285999999999998           
         H32       1.0000    0.46617   0.20410   0.38550   Biso      1.000     H          0.13632   
         H33       1.0000    0.51637   0.10480   0.42750   Biso      1.000     H          0.093707  
         H34       1.0000    0.97400   0.46890   0.91880   Biso      1.000     H          0.264018  
         H35       1.0000    0.16740   0.46790   0.69220   Biso      1.000     H          0.10488499999999999           
         H36       1.0000    0.84970   0.57250   0.67730   Biso      1.000     H          0.09457   
         H37       1.0000    0.79950   0.61450   0.81860   Biso      1.000     H          0.136459  
         H38       1.0000    0.12610   0.50720   0.83450   Biso      1.000     H          0.131661  
         H39       1.0000    0.99080   0.61710   0.97350   Biso      1.000     H          0.131499  
         H40       1.0000    0.84660   0.61840   0.95350   Biso      1.000     H          0.11461700000000001           
         H41       1.0000    0.77310   0.47060   0.84560   Biso      1.000     H          0.089394  
         H42       1.0000    0.73980   0.32440   0.80540   Biso      1.000     H          0.071332  
         H43       1.0000    0.88450   0.25420   0.85110   Biso      1.000     H          0.158395  
         H44       1.0000    0.79240   0.31760   0.92540   Biso      1.000     H          0.157553  
         H45       1.0000    0.93230   0.34620   0.92340   Biso      1.000     H          0.140175  
         H46       1.0000    0.99720   0.35240   0.78340   Biso      1.000     H          0.137986  
         H47       1.0000    0.88790   0.35390   0.72410   Biso      1.000     H          0.151695  
         H48       1.0000    0.92100   0.26700   0.72310   Biso      1.000     H          0.160667  
         H49       1.0000    0.64067   0.44990   0.53110   Biso      1.000     H          0.264755  
         H50       1.0000    0.83407   0.22430   0.53210   Biso      1.000     H          0.104619  
         H51       1.0000    0.10643   0.15440   0.62500   Biso      1.000     H          0.088514  
         H52       1.0000    0.07313   0.19460   0.51900   Biso      1.000     H          0.071314  
         H53       1.0000    0.30733   0.08120   0.55010   Biso      1.000     H          0.264449  
         H54       1.0000    0.12573   0.07460   0.39220   Biso      1.000     H          0.15628399999999998           
         H55       1.0000    0.33407   0.77570   0.46790   Biso      1.000     H          0.104619  
         H56       1.0000    0.01637   0.89520   0.57250   Biso      1.000     H          0.093707  
         H57       1.0000    0.96617   0.79590   0.61450   Biso      1.000     H          0.13632   
         H58       1.0000    0.29277   0.67270   0.50720   Biso      1.000     H          0.13285999999999998           
         H59       1.0000    0.15747   0.64360   0.61710   Biso      1.000     H          0.130657  
         H60       1.0000    0.01327   0.66490   0.61840   Biso      1.000     H          0.11404500000000001           
         H61       1.0000    0.21783   0.14890   0.40310   Biso      1.000     H          0.158133  
         H62       1.0000    0.90647   0.51900   0.32440   Biso      1.000     H          0.07148   
         H63       1.0000    0.05117   0.40310   0.25420   Biso      1.000     H          0.15826099999999999           
         H64       1.0000    0.95907   0.39220   0.31760   Biso      1.000     H          0.157818  
         H65       1.0000    0.09897   0.42280   0.34620   Biso      1.000     H          0.140146  
         H66       1.0000    0.16387   0.56900   0.35240   Biso      1.000     H          0.139234  
         H67       1.0000    0.05457   0.62980   0.35390   Biso      1.000     H          0.15021099999999998           
         H68       1.0000    0.08767   0.54390   0.26700   Biso      1.000     H          0.160616  
         H69       1.0000    0.80733   0.91880   0.44990   Biso      1.000     H          0.264449  
         H70       1.0000    0.14067   0.55010   0.46890   Biso      1.000     H          0.264755  
         H71       1.0000    0.42100   0.73300   0.27690   Biso      1.000     H          0.160667  
         H72       1.0000    0.93977   0.62500   0.47060   Biso      1.000     H          0.08931499999999999           
         H73       1.0000    0.49720   0.64760   0.21660   Biso      1.000     H          0.137986  
         H74       1.0000    0.38790   0.64610   0.27590   Biso      1.000     H          0.151695  
         H75       1.0000    0.33053   0.21660   0.56900   Biso      1.000     H          0.138851  
         H76       1.0000    0.22123   0.27590   0.62980   Biso      1.000     H          0.15066   
         H77       1.0000    0.25433   0.27690   0.54390   Biso      1.000     H          0.16073900000000002           
         H78       1.0000    0.47400   0.53110   0.08120   Biso      1.000     H          0.264018  
         H79       1.0000    0.66740   0.53210   0.30780   Biso      1.000     H          0.10488499999999999           
         H80       1.0000    0.29950   0.38550   0.18140   Biso      1.000     H          0.136458  
         H81       1.0000    0.62610   0.49280   0.16550   Biso      1.000     H          0.131661  
         H82       1.0000    0.34970   0.42750   0.32270   Biso      1.000     H          0.09457   
         H83       1.0000    0.49080   0.38290   0.02650   Biso      1.000     H          0.131499  
         H84       1.0000    0.34660   0.38160   0.04650   Biso      1.000     H          0.11461700000000001           
         H85       1.0000    0.27310   0.52940   0.15440   Biso      1.000     H          0.089394  
         H86       1.0000    0.23980   0.67560   0.19460   Biso      1.000     H          0.071332  
         H87       1.0000    0.38450   0.74580   0.14890   Biso      1.000     H          0.158395  
         H88       1.0000    0.29240   0.68240   0.07460   Biso      1.000     H          0.157553  
         H89       1.0000    0.43230   0.65380   0.07660   Biso      1.000     H          0.140175  
         H90       1.0000    0.26563   0.07660   0.42280   Biso      1.000     H          0.13918699999999998           
         N1        1.0000    0.40320   0.49753   0.06067   Biso      1.000     N          -0.335508           
         N2        1.0000    0.73653   0.93933   0.43686   Biso      1.000     N          -0.336983           
         N3        1.0000    0.84423   0.67010   0.15490   Biso      1.000     N          -0.20947800000000003          
         N4        1.0000    0.06987   0.56314   0.50247   Biso      1.000     N          -0.335418           
         N5        1.0000    0.17757   0.84510   0.51520   Biso      1.000     N          -0.210137           
         N6        1.0000    0.51090   0.48480   0.32990   Biso      1.000     N          -0.209033           
         N7        1.0000    0.01090   0.51520   0.67010   Biso      1.000     N          -0.209033           
         N8        1.0000    0.34423   0.32990   0.84510   Biso      1.000     N          -0.20947800000000003          
         N9        1.0000    0.56987   0.43686   0.49753   Biso      1.000     N          -0.335418           
         N10       1.0000    0.67757   0.15490   0.48480   Biso      1.000     N          -0.210137           
         N11       1.0000    0.90320   0.50247   0.93933   Biso      1.000     N          -0.335508           
         N12       1.0000    0.23653   0.06067   0.56314   Biso      1.000     N          -0.336983           
         O1        1.0000    0.24317   0.47247   0.56639   Biso      1.000     O          -0.565014           
         O2        1.0000    0.02133   0.97358   0.48849   Biso      1.000     O          -0.551992           
         O3        1.0000    0.90983   0.09392   0.52753   Biso      1.000     O          -0.564779           
         O4        1.0000    0.18800   0.48509   0.97358   Biso      1.000     O          -0.551355           
         O5        1.0000    0.07650   0.56639   0.09392   Biso      1.000     O          -0.564991           
         O6        1.0000    0.85467   0.48849   0.51491   Biso      1.000     O          -0.55129  
         O7        1.0000    0.74317   0.52753   0.43361   Biso      1.000     O          -0.565014           
         O8        1.0000    0.35467   0.51151   0.48509   Biso      1.000     O          -0.55129  
         O9        1.0000    0.40983   0.90608   0.47247   Biso      1.000     O          -0.564779           
         O10       1.0000    0.68800   0.51491   0.02642   Biso      1.000     O          -0.551355           
         O11       1.0000    0.52133   0.02642   0.51151   Biso      1.000     O          -0.551992           
         O12       1.0000    0.57650   0.43361   0.90608   Biso      1.000     O          -0.564991           
         Zn1       1.0000    0.71569   0.07100   0.53061   Biso      1.000     Zn          0.7278720000000001  
         Zn2       1.0000    0.04903   0.46939   0.54039   Biso      1.000     Zn          0.726953  
         Zn3       1.0000    0.38236   0.45961   0.92900   Biso      1.000     Zn          0.726722  
         Zn4       1.0000    0.21569   0.92900   0.46939   Biso      1.000     Zn          0.7278720000000001  
         Zn5       1.0000    0.54903   0.53061   0.45961   Biso      1.000     Zn          0.726953  
         Zn6       1.0000    0.88236   0.54039   0.07100   Biso      1.000     Zn          0.726722 