
##########################################################################
#               Crystallographic Information Format file
#               Produced by PyCifRW module
#
#  This is a CIF file.  CIF has been adopted by the International
#  Union of Crystallography as the standard for data archiving and
#  transmission.
#
#  For information on this file format, follow the CIF links at
#  http://www.iucr.org
##########################################################################

data_image0

_cell_length_a                          12.108
_cell_length_b                          13.115
_cell_length_c                          14.53
_cell_angle_alpha                       73.38
_cell_angle_beta                        68.48
_cell_angle_gamma                       79.95
_symmetry_space_group_name_H-M          'P 1'
_symmetry_int_tables_number             1
loop_
  _symmetry_equiv_pos_as_xyz
         'x, y, z' 
loop_
  _atom_site_label
  _atom_site_occupancy
  _atom_site_fract_x
  _atom_site_fract_y
  _atom_site_fract_z
  _atom_site_thermal_displace_type
  _atom_site_B_iso_or_equiv
  _atom_site_type_symbol
  _atom_site_charge
         C1        1.0000    0.79237   0.17052   0.24772   Biso      1.000     C          -0.055969000000000005         
         C2        1.0000    0.66361   0.29287   0.36028   Biso      1.000     C          -0.519749           
         C3        1.0000    0.73230   0.09283   0.85095   Biso      1.000     C          0.147618  
         C4        1.0000    0.72433   0.38386   0.98449   Biso      1.000     C          -0.528158           
         C5        1.0000    0.63394   0.44406   0.17847   Biso      1.000     C          -0.17316900000000002          
         C6        1.0000    0.72296   0.26755   0.25852   Biso      1.000     C          0.075809  
         C7        1.0000    0.88387   0.19533   0.96307   Biso      1.000     C          -0.161625           
         C8        1.0000    0.84597   0.14669   0.15256   Biso      1.000     C          0.10859200000000001           
         C9        1.0000    0.75479   0.31269   0.07607   Biso      1.000     C          0.10901400000000001           
         C10       1.0000    0.70681   0.33904   0.17108   Biso      1.000     C          -0.06718099999999999          
         C11       1.0000    0.82798   0.21899   0.06670   Biso      1.000     C          -0.044170999999999995         
         C12       1.0000    0.81301   0.09229   0.34138   Biso      1.000     C          -0.17891400000000002          
         C13       1.0000    0.92418   0.04407   0.14192   Biso      1.000     C          -0.523813           
         C14       1.0000    0.33315   0.16869   0.43702   Biso      1.000     C          0.5638449999999999  
         C15       1.0000    0.45468   0.34283   0.22503   Biso      1.000     C          0.101799  
         C16       1.0000    0.32526   0.47261   0.23592   Biso      1.000     C          0.155867  
         C17       1.0000    0.09905   0.06088   0.35961   Biso      1.000     C          0.16044   
         C18       1.0000    0.98340   0.19231   0.31769   Biso      1.000     C          0.081023  
         C19       1.0000    0.95682   0.51158   0.20881   Biso      1.000     C          0.618877  
         C20       1.0000    0.06689   0.42744   0.05592   Biso      1.000     C          -0.03685  
         C21       1.0000    0.08273   0.42775   0.95507   Biso      1.000     C          -0.126002           
         C22       1.0000    0.43562   0.06758   0.56083   Biso      1.000     C          -0.138749           
         C23       1.0000    0.48768   0.01346   0.40508   Biso      1.000     C          -0.014702000000000002         
         C24       1.0000    0.42103   0.08227   0.46721   Biso      1.000     C          -0.041270999999999995         
         C25       1.0000    0.69984   0.10413   0.99986   Biso      1.000     C          0.093096  
         C26       1.0000    0.14261   0.35020   0.11132   Biso      1.000     C          0.550483  
         C27       1.0000    0.30016   0.89587   0.00014   Biso      1.000     C          0.093099  
         C28       1.0000    0.51534   0.97564   0.70118   Biso      1.000     C          0.56901   
         C29       1.0000    0.01790   0.49831   0.89921   Biso      1.000     C          -0.09281299999999999          
         C30       1.0000    0.07582   0.95593   0.85808   Biso      1.000     C          -0.523814           
         C31       1.0000    0.33639   0.70713   0.63972   Biso      1.000     C          -0.519741           
         C32       1.0000    0.26770   0.90717   0.14905   Biso      1.000     C          0.147621  
         C33       1.0000    0.27567   0.61614   0.01551   Biso      1.000     C          -0.5281600000000001           
         C34       1.0000    0.36606   0.55594   0.82153   Biso      1.000     C          -0.173165           
         C35       1.0000    0.27704   0.73245   0.74148   Biso      1.000     C          0.075808  
         C36       1.0000    0.11613   0.80467   0.03693   Biso      1.000     C          -0.161625           
         C37       1.0000    0.15403   0.85331   0.84744   Biso      1.000     C          0.108589  
         C38       1.0000    0.20763   0.82948   0.75228   Biso      1.000     C          -0.05597100000000001          
         C39       1.0000    0.24521   0.68731   0.92393   Biso      1.000     C          0.10901199999999998           
         C40       1.0000    0.29319   0.66096   0.82892   Biso      1.000     C          -0.06718099999999999          
         C41       1.0000    0.17202   0.78101   0.93330   Biso      1.000     C          -0.044175           
         C42       1.0000    0.18699   0.90771   0.65862   Biso      1.000     C          -0.17891400000000002          
         C43       1.0000    0.66685   0.83131   0.56298   Biso      1.000     C          0.5638479999999999  
         C44       1.0000    0.85739   0.64980   0.88868   Biso      1.000     C          0.5504819999999999  
         C45       1.0000    0.54532   0.65717   0.77497   Biso      1.000     C          0.10179099999999999           
         C46       1.0000    0.67474   0.52739   0.76408   Biso      1.000     C          0.155858  
         C47       1.0000    0.90095   0.93912   0.64039   Biso      1.000     C          0.160437  
         C48       1.0000    0.01660   0.80769   0.68231   Biso      1.000     C          0.08101699999999999           
         C49       1.0000    0.04318   0.48842   0.79119   Biso      1.000     C          0.618876  
         C50       1.0000    0.93311   0.57256   0.94408   Biso      1.000     C          -0.036848           
         C51       1.0000    0.91727   0.57225   0.04493   Biso      1.000     C          -0.12600699999999998          
         C52       1.0000    0.56438   0.93242   0.43917   Biso      1.000     C          -0.13874  
         C53       1.0000    0.51232   0.98654   0.59492   Biso      1.000     C          -0.0147   
         C54       1.0000    0.57897   0.91773   0.53279   Biso      1.000     C          -0.041260000000000005         
         C55       1.0000    0.48466   0.02436   0.29882   Biso      1.000     C          0.5690109999999999  
         C56       1.0000    0.98210   0.50169   0.10079   Biso      1.000     C          -0.092814           
         Cu1       1.0000    0.21127   0.27021   0.28957   Biso      1.000     Cu          0.80648   
         Cu2       1.0000    0.78873   0.72979   0.71043   Biso      1.000     Cu          0.8064479999999999  
         Cu3       1.0000    0.50000   0.00000   0.00000   Biso      1.000     Cu          0.905867  
         H1        1.0000    0.10000   0.99150   0.89610   Biso      1.000     H          0.169749  
         H2        1.0000    0.58700   0.26440   0.39200   Biso      1.000     H          0.190109  
         H3        1.0000    0.65390   0.36890   0.35170   Biso      1.000     H          0.171318  
         H4        1.0000    0.72220   0.07720   0.79610   Biso      1.000     H          0.11437699999999999           
         H5        1.0000    0.79550   0.41190   0.93260   Biso      1.000     H          0.172224  
         H6        1.0000    0.66850   0.44170   0.00480   Biso      1.000     H          0.165892  
         H7        1.0000    0.68970   0.34290   0.95820   Biso      1.000     H          0.1742    
         H8        1.0000    0.64420   0.47040   0.23060   Biso      1.000     H          0.131813  
         H9        1.0000    0.66130   0.49620   0.11400   Biso      1.000     H          0.13309200000000002           
         H10       1.0000    0.90680   0.26110   0.91180   Biso      1.000     H          0.141287  
         H11       1.0000    0.95530   0.14780   0.96120   Biso      1.000     H          0.128029  
         H12       1.0000    0.80820   0.01990   0.33950   Biso      1.000     H          0.144744  
         H13       1.0000    0.71180   0.26160   0.40260   Biso      1.000     H          0.167811  
         H14       1.0000    0.49280   0.27480   0.22550   Biso      1.000     H          0.11773099999999999           
         H15       1.0000    0.25180   0.51180   0.24640   Biso      1.000     H          0.120101  
         H16       1.0000    0.99430   0.93970   0.89330   Biso      1.000     H          0.17766600000000002           
         H17       1.0000    0.95030   0.26070   0.29700   Biso      1.000     H          0.091116  
         H18       1.0000    0.13900   0.37860   0.92460   Biso      1.000     H          0.136427  
         H19       1.0000    0.39250   0.11370   0.60210   Biso      1.000     H          0.135426  
         H20       1.0000    0.89280   0.39340   0.26240   Biso      1.000     H          0.404161  
         H21       1.0000    0.66670   0.09990   0.06950   Biso      1.000     H          0.11793   
         H22       1.0000    0.48660   0.07370   0.83380   Biso      1.000     H          0.387342  
         H23       1.0000    0.75190   0.10660   0.40270   Biso      1.000     H          0.131934  
         H24       1.0000    0.91640   0.99850   0.20840   Biso      1.000     H          0.172294  
         H25       1.0000    0.16540   0.02170   0.37350   Biso      1.000     H          0.11945499999999999           
         H26       1.0000    0.00570   0.06030   0.10670   Biso      1.000     H          0.177671  
         H27       1.0000    0.90000   0.00850   0.10390   Biso      1.000     H          0.169755  
         H28       1.0000    0.08360   0.00150   0.79160   Biso      1.000     H          0.172292  
         H29       1.0000    0.28820   0.73840   0.59740   Biso      1.000     H          0.16778900000000002           
         H30       1.0000    0.41300   0.73560   0.60800   Biso      1.000     H          0.190094  
         H31       1.0000    0.34610   0.63110   0.64830   Biso      1.000     H          0.171298  
         H32       1.0000    0.27780   0.92280   0.20390   Biso      1.000     H          0.114378  
         H33       1.0000    0.20450   0.58810   0.06740   Biso      1.000     H          0.172218  
         H34       1.0000    0.33150   0.55830   0.99520   Biso      1.000     H          0.165891  
         H35       1.0000    0.31030   0.65710   0.04180   Biso      1.000     H          0.17419600000000002           
         H36       1.0000    0.33870   0.50380   0.88600   Biso      1.000     H          0.13308399999999998           
         H37       1.0000    0.09320   0.73890   0.08820   Biso      1.000     H          0.141285  
         H38       1.0000    0.04470   0.85220   0.03880   Biso      1.000     H          0.12803   
         H39       1.0000    0.35580   0.52960   0.76940   Biso      1.000     H          0.1318    
         H40       1.0000    0.19180   0.98010   0.66050   Biso      1.000     H          0.144741  
         H41       1.0000    0.51340   0.92630   0.16620   Biso      1.000     H          0.38734   
         H42       1.0000    0.33330   0.90010   0.93050   Biso      1.000     H          0.117933  
         H43       1.0000    0.24810   0.89340   0.59730   Biso      1.000     H          0.131932  
         H44       1.0000    0.60750   0.88630   0.39790   Biso      1.000     H          0.135417  
         H45       1.0000    0.86100   0.62140   0.07540   Biso      1.000     H          0.13643   
         H46       1.0000    0.10720   0.60660   0.73760   Biso      1.000     H          0.404161  
         H47       1.0000    0.83460   0.97830   0.62650   Biso      1.000     H          0.119453  
         H48       1.0000    0.74820   0.48820   0.75360   Biso      1.000     H          0.120082  
         H49       1.0000    0.50720   0.72520   0.77450   Biso      1.000     H          0.117728  
         H50       1.0000    0.04970   0.73930   0.70300   Biso      1.000     H          0.09111799999999999           
         N1        1.0000    0.90925   0.83112   0.67360   Biso      1.000     N          -0.303012           
         N2        1.0000    0.99491   0.98221   0.62996   Biso      1.000     N          -0.251697           
         N3        1.0000    0.57444   0.48455   0.78957   Biso      1.000     N          -0.269938           
         N4        1.0000    0.49194   0.56967   0.79612   Biso      1.000     N          0.19421300000000002           
         N5        1.0000    0.19867   0.85424   0.06071   Biso      1.000     N          0.18023599999999998           
         N6        1.0000    0.06902   0.89662   0.65697   Biso      1.000     N          0.195409  
         N7        1.0000    0.17584   0.86105   0.15792   Biso      1.000     N          -0.241475           
         N8        1.0000    0.34723   0.93035   0.05294   Biso      1.000     N          -0.257262           
         N9        1.0000    0.66135   0.63358   0.75453   Biso      1.000     N          -0.298902           
         N10       1.0000    0.50806   0.43033   0.20388   Biso      1.000     N          0.194204  
         N11       1.0000    0.00509   0.01779   0.37004   Biso      1.000     N          -0.251686           
         N12       1.0000    0.42556   0.51545   0.21043   Biso      1.000     N          -0.269902           
         N13       1.0000    0.80133   0.14576   0.93929   Biso      1.000     N          0.18023499999999998           
         N14       1.0000    0.93098   0.10338   0.34303   Biso      1.000     N          0.195407  
         N15       1.0000    0.65277   0.06965   0.94706   Biso      1.000     N          -0.257261           
         N16       1.0000    0.09075   0.16888   0.32640   Biso      1.000     N          -0.30301999999999996          
         N17       1.0000    0.33865   0.36642   0.24547   Biso      1.000     N          -0.298906           
         N18       1.0000    0.82416   0.13895   0.84208   Biso      1.000     N          -0.241477           
         O1        1.0000    0.56032   0.04958   0.71064   Biso      1.000     O          -0.48109700000000005          
         O2        1.0000    0.70014   0.75758   0.51938   Biso      1.000     O          -0.557705           
         O3        1.0000    0.10522   0.55400   0.71854   Biso      1.000     O          -0.47004300000000004          
         O4        1.0000    0.47002   0.89951   0.77049   Biso      1.000     O          -0.513506           
         O5        1.0000    0.70340   0.84135   0.63170   Biso      1.000     O          -0.55007  
         O6        1.0000    0.54794   0.90451   0.11442   Biso      1.000     O          -0.77148  
         O7        1.0000    0.85830   0.63194   0.80785   Biso      1.000     O          -0.569821           
         O8        1.0000    0.20029   0.27310   0.07636   Biso      1.000     O          -0.5534479999999999           
         O9        1.0000    0.89478   0.44600   0.28146   Biso      1.000     O          -0.470028           
         O10       1.0000    0.43968   0.95042   0.28936   Biso      1.000     O          -0.48110200000000003          
         O11       1.0000    0.29986   0.24242   0.48062   Biso      1.000     O          -0.557635           
         O12       1.0000    0.52998   0.10049   0.22951   Biso      1.000     O          -0.513516           
         O13       1.0000    0.29660   0.15865   0.36830   Biso      1.000     O          -0.5500649999999999           
         O14       1.0000    0.45206   0.09549   0.88558   Biso      1.000     O          -0.771483           
         O15       1.0000    0.14170   0.36806   0.19215   Biso      1.000     O          -0.569826           
         O16       1.0000    0.00533   0.40911   0.78366   Biso      1.000     O          -0.488353           
         O17       1.0000    0.99467   0.59089   0.21634   Biso      1.000     O          -0.48833999999999994          
         O18       1.0000    0.79971   0.72690   0.92364   Biso      1.000     O          -0.553457 