
##########################################################################
#               Crystallographic Information Format file
#               Produced by PyCifRW module
#
#  This is a CIF file.  CIF has been adopted by the International
#  Union of Crystallography as the standard for data archiving and
#  transmission.
#
#  For information on this file format, follow the CIF links at
#  http://www.iucr.org
##########################################################################

data_image0

_cell_length_a                          5.7266
_cell_length_b                          9.9412
_cell_length_c                          16.474
_cell_angle_alpha                       90
_cell_angle_beta                        90
_cell_angle_gamma                       94.294
_symmetry_space_group_name_H-M          'P 1'
_symmetry_int_tables_number             1
loop_
  _symmetry_equiv_pos_as_xyz
         'x, y, z' 
loop_
  _atom_site_label
  _atom_site_occupancy
  _atom_site_fract_x
  _atom_site_fract_y
  _atom_site_fract_z
  _atom_site_thermal_displace_type
  _atom_site_B_iso_or_equiv
  _atom_site_type_symbol
  _atom_site_charge
         C1        1.0000    0.33460   0.33260   0.34540   Biso      1.000     C          0.233129  
         C2        1.0000    0.62510   0.23220   0.70200   Biso      1.000     C          -0.187183           
         C3        1.0000    0.51560   0.30190   0.64250   Biso      1.000     C          0.082967  
         C4        1.0000    0.25860   0.38030   0.73350   Biso      1.000     C          0.089658  
         C5        1.0000    0.66540   0.16740   0.84540   Biso      1.000     C          0.233128  
         C6        1.0000    0.48440   0.19810   0.14250   Biso      1.000     C          0.082966  
         C7        1.0000    0.37490   0.26780   0.20200   Biso      1.000     C          -0.18718  
         C8        1.0000    0.45650   0.26280   0.28100   Biso      1.000     C          0.096305  
         C9        1.0000    0.64260   0.18750   0.29620   Biso      1.000     C          -0.18052  
         C10       1.0000    0.74140   0.11970   0.23350   Biso      1.000     C          0.08966   
         C11       1.0000    0.48440   0.69810   0.35750   Biso      1.000     C          0.082963  
         C12       1.0000    0.37490   0.76780   0.29800   Biso      1.000     C          -0.187181           
         C13       1.0000    0.45650   0.76280   0.21900   Biso      1.000     C          0.096305  
         C14       1.0000    0.64260   0.68750   0.20380   Biso      1.000     C          -0.180519           
         C15       1.0000    0.74140   0.61970   0.26650   Biso      1.000     C          0.089658  
         C16       1.0000    0.33460   0.83260   0.15460   Biso      1.000     C          0.233127  
         C17       1.0000    0.51560   0.80190   0.85750   Biso      1.000     C          0.082964  
         C18       1.0000    0.62510   0.73220   0.79800   Biso      1.000     C          -0.18718  
         C19       1.0000    0.54350   0.73720   0.71900   Biso      1.000     C          0.096305  
         C20       1.0000    0.35740   0.81250   0.70380   Biso      1.000     C          -0.18052  
         C21       1.0000    0.25860   0.88030   0.76650   Biso      1.000     C          0.089659  
         C22       1.0000    0.66540   0.66740   0.65460   Biso      1.000     C          0.233126  
         C23       1.0000    0.54350   0.23720   0.78100   Biso      1.000     C          0.096306  
         C24       1.0000    0.35740   0.31250   0.79620   Biso      1.000     C          -0.180518           
         Cu1       1.0000    0.24641   0.51161   0.56730   Biso      1.000     Cu          0.234603  
         Cu2       1.0000    0.75359   0.98839   0.06730   Biso      1.000     Cu          0.234595  
         Cu3       1.0000    0.75359   0.48839   0.43270   Biso      1.000     Cu          0.2346    
         Cu4       1.0000    0.24641   0.01161   0.93270   Biso      1.000     Cu          0.234595  
         H1        1.0000    0.30700   0.82400   0.65300   Biso      1.000     H          0.135188  
         H2        1.0000    0.13100   0.93700   0.75800   Biso      1.000     H          0.086035  
         H3        1.0000    0.56500   0.30300   0.59000   Biso      1.000     H          0.088051  
         H4        1.0000    0.74200   0.18500   0.68800   Biso      1.000     H          0.136628  
         H5        1.0000    0.13100   0.43700   0.74200   Biso      1.000     H          0.086035  
         H6        1.0000    0.43500   0.19700   0.09000   Biso      1.000     H          0.088049  
         H7        1.0000    0.25800   0.31500   0.18800   Biso      1.000     H          0.136628  
         H8        1.0000    0.30700   0.32400   0.84700   Biso      1.000     H          0.135187  
         H9        1.0000    0.86900   0.06300   0.24200   Biso      1.000     H          0.086035  
         H10       1.0000    0.69300   0.17600   0.34700   Biso      1.000     H          0.135189  
         H11       1.0000    0.56500   0.80300   0.91000   Biso      1.000     H          0.088048  
         H12       1.0000    0.86900   0.56300   0.25800   Biso      1.000     H          0.086035  
         H13       1.0000    0.69300   0.67600   0.15300   Biso      1.000     H          0.135185  
         H14       1.0000    0.74200   0.68500   0.81200   Biso      1.000     H          0.136626  
         H15       1.0000    0.43500   0.69700   0.41000   Biso      1.000     H          0.08805   
         H16       1.0000    0.25800   0.81500   0.31200   Biso      1.000     H          0.136625  
         N1        1.0000    0.75170   0.57130   0.54419   Biso      1.000     N          -0.050851           
         N2        1.0000    0.66480   0.62380   0.34350   Biso      1.000     N          -0.205046           
         N3        1.0000    0.57350   0.62510   0.58335   Biso      1.000     N          -0.252828           
         N4        1.0000    0.33520   0.87620   0.84350   Biso      1.000     N          -0.205044           
         N5        1.0000    0.11130   0.85890   0.16170   Biso      1.000     N          -0.259943           
         N6        1.0000    0.06050   0.91710   0.09170   Biso      1.000     N          -0.046216           
         N7        1.0000    0.24830   0.92870   0.04419   Biso      1.000     N          -0.050818           
         N8        1.0000    0.42650   0.87490   0.08335   Biso      1.000     N          -0.252828           
         N9        1.0000    0.11130   0.35890   0.33830   Biso      1.000     N          -0.25995  
         N10       1.0000    0.33520   0.37620   0.65650   Biso      1.000     N          -0.205046           
         N11       1.0000    0.24830   0.42870   0.45581   Biso      1.000     N          -0.050856           
         N12       1.0000    0.42650   0.37490   0.41665   Biso      1.000     N          -0.252827           
         N13       1.0000    0.66480   0.12380   0.15650   Biso      1.000     N          -0.205044           
         N14       1.0000    0.88870   0.14110   0.83830   Biso      1.000     N          -0.259943           
         N15       1.0000    0.93950   0.08290   0.90830   Biso      1.000     N          -0.046216           
         N16       1.0000    0.75170   0.07130   0.95581   Biso      1.000     N          -0.050816           
         N17       1.0000    0.57350   0.12510   0.91665   Biso      1.000     N          -0.252829           
         N18       1.0000    0.93950   0.58290   0.59170   Biso      1.000     N          -0.046212           
         N19       1.0000    0.06050   0.41710   0.40830   Biso      1.000     N          -0.04618  
         N20       1.0000    0.88870   0.64110   0.66170   Biso      1.000     N          -0.259922 