
##########################################################################
#               Crystallographic Information Format file
#               Produced by PyCifRW module
#
#  This is a CIF file.  CIF has been adopted by the International
#  Union of Crystallography as the standard for data archiving and
#  transmission.
#
#  For information on this file format, follow the CIF links at
#  http://www.iucr.org
##########################################################################

data_image0

_cell_length_a                          11.84
_cell_length_b                          12.3247
_cell_length_c                          13.7362
_cell_angle_alpha                       92.615
_cell_angle_beta                        112.675
_cell_angle_gamma                       109.04
_symmetry_space_group_name_H-M          'P 1'
_symmetry_int_tables_number             1
loop_
  _symmetry_equiv_pos_as_xyz
         'x, y, z' 
loop_
  _atom_site_label
  _atom_site_occupancy
  _atom_site_fract_x
  _atom_site_fract_y
  _atom_site_fract_z
  _atom_site_thermal_displace_type
  _atom_site_B_iso_or_equiv
  _atom_site_type_symbol
  _atom_site_charge
         C1        1.0000    0.95930   0.55870   0.79340   Biso      1.000     C          0.254261  
         C2        1.0000    0.93650   0.52950   0.05680   Biso      1.000     C          -0.12012300000000001          
         C3        1.0000    0.01970   0.46950   0.09980   Biso      1.000     C          0.042731  
         C4        1.0000    0.04070   0.44130   0.20660   Biso      1.000     C          0.254263  
         C5        1.0000    0.44030   0.57750   0.96060   Biso      1.000     C          -0.12479100000000001          
         C6        1.0000    0.47330   0.39980   0.93130   Biso      1.000     C          -0.12190799999999999          
         C7        1.0000    0.41330   0.47840   0.89155   Biso      1.000     C          0.04118   
         C8        1.0000    0.32230   0.45560   0.77697   Biso      1.000     C          0.245784  
         C9        1.0000    0.38610   0.92940   0.50810   Biso      1.000     C          0.048306  
         C10       1.0000    0.40530   0.04420   0.49630   Biso      1.000     C          -0.126174           
         C11       1.0000    0.48160   0.88610   0.51130   Biso      1.000     C          -0.117852           
         C12       1.0000    0.67770   0.54440   0.22303   Biso      1.000     C          0.24578200000000003           
         C13       1.0000    0.58670   0.52160   0.10845   Biso      1.000     C          0.041178  
         C14       1.0000    0.52670   0.60020   0.06870   Biso      1.000     C          -0.12190799999999999          
         C15       1.0000    0.55970   0.42250   0.03940   Biso      1.000     C          -0.12478900000000001          
         C16       1.0000    0.98030   0.53050   0.90020   Biso      1.000     C          0.042731  
         C17       1.0000    0.06350   0.47050   0.94320   Biso      1.000     C          -0.120124           
         C18       1.0000    0.91770   0.56100   0.95820   Biso      1.000     C          -0.12182899999999999          
         C19       1.0000    0.73390   0.14720   0.48450   Biso      1.000     C          0.24785   
         C20       1.0000    0.61390   0.07060   0.49190   Biso      1.000     C          0.048306  
         C21       1.0000    0.59470   0.95580   0.50370   Biso      1.000     C          -0.126173           
         C22       1.0000    0.51840   0.11390   0.48870   Biso      1.000     C          -0.117851           
         C23       1.0000    0.08230   0.43900   0.04180   Biso      1.000     C          -0.12182899999999999          
         C24       1.0000    0.26610   0.85280   0.51550   Biso      1.000     C          0.247852  
         Cd1       1.0000    0.11509   0.23332   0.46084   Biso      1.000     Cd          0.897544  
         Cd2       1.0000    0.00000   0.50000   0.50000   Biso      1.000     Cd          0.580396  
         Cd3       1.0000    0.88491   0.76668   0.53916   Biso      1.000     Cd          0.897541  
         H1        1.0000    0.53090   0.19270   0.48110   Biso      1.000     H          0.11946199999999998           
         H2        1.0000    0.45530   0.33100   0.88470   Biso      1.000     H          0.119629  
         H3        1.0000    0.39930   0.63120   0.93400   Biso      1.000     H          0.12069400000000001           
         H4        1.0000    0.89220   0.54890   0.09560   Biso      1.000     H          0.117908  
         H5        1.0000    0.13780   0.39660   0.06990   Biso      1.000     H          0.121274  
         H6        1.0000    0.65950   0.92500   0.50640   Biso      1.000     H          0.096458  
         H7        1.0000    0.46910   0.80730   0.51890   Biso      1.000     H          0.11946199999999998           
         H8        1.0000    0.54470   0.66900   0.11530   Biso      1.000     H          0.119629  
         H9        1.0000    0.60070   0.36880   0.06600   Biso      1.000     H          0.12069400000000001           
         H10       1.0000    0.10780   0.45110   0.90440   Biso      1.000     H          0.117908  
         H11       1.0000    0.34050   0.07500   0.49360   Biso      1.000     H          0.096459  
         H12       1.0000    0.86220   0.60340   0.93010   Biso      1.000     H          0.121274  
         N1        1.0000    0.88113   0.29937   0.48325   Biso      1.000     N          -0.030249           
         N2        1.0000    0.81610   0.53012   0.36988   Biso      1.000     N          -0.033667           
         N3        1.0000    0.79042   0.62361   0.38698   Biso      1.000     N          -0.111483           
         N4        1.0000    0.70290   0.63512   0.29502   Biso      1.000     N          -0.30472  
         N5        1.0000    0.93310   0.65206   0.76034   Biso      1.000     N          -0.298063           
         N6        1.0000    0.94790   0.54930   0.63721   Biso      1.000     N          -0.038584           
         N7        1.0000    0.96870   0.49386   0.71902   Biso      1.000     N          -0.224007           
         N8        1.0000    0.76630   0.26274   0.49062   Biso      1.000     N          -0.23084000000000002          
         N9        1.0000    0.74590   0.47723   0.26674   Biso      1.000     N          -0.22736900000000002          
         N10       1.0000    0.92710   0.64337   0.66103   Biso      1.000     N          -0.105226           
         N11       1.0000    0.17510   0.88791   0.52608   Biso      1.000     N          -0.322243           
         N12       1.0000    0.06690   0.34794   0.23966   Biso      1.000     N          -0.298063           
         N13       1.0000    0.11887   0.70063   0.51675   Biso      1.000     N          -0.030253           
         N14       1.0000    0.23370   0.73726   0.50938   Biso      1.000     N          -0.230841           
         N15       1.0000    0.03130   0.50614   0.28098   Biso      1.000     N          -0.22403499999999998          
         N16       1.0000    0.05210   0.45070   0.36279   Biso      1.000     N          -0.038553           
         N17       1.0000    0.07290   0.35663   0.33897   Biso      1.000     N          -0.10522999999999999          
         N18       1.0000    0.29710   0.36488   0.70498   Biso      1.000     N          -0.30474  
         N19       1.0000    0.20958   0.37639   0.61302   Biso      1.000     N          -0.111489           
         N20       1.0000    0.18390   0.46988   0.63012   Biso      1.000     N          -0.033638999999999995         
         N21       1.0000    0.25410   0.52277   0.73326   Biso      1.000     N          -0.227373           
         N22       1.0000    0.91643   0.20961   0.47289   Biso      1.000     N          -0.10417699999999999          
         N23       1.0000    0.08357   0.79039   0.52711   Biso      1.000     N          -0.104146           
         N24       1.0000    0.82490   0.11209   0.47392   Biso      1.000     N          -0.32221500000000003 