
##########################################################################
#               Crystallographic Information Format file
#               Produced by PyCifRW module
#
#  This is a CIF file.  CIF has been adopted by the International
#  Union of Crystallography as the standard for data archiving and
#  transmission.
#
#  For information on this file format, follow the CIF links at
#  http://www.iucr.org
##########################################################################

data_image0

_cell_length_a                          7.5074
_cell_length_b                          9.2012
_cell_length_c                          11.6139
_cell_angle_alpha                       100.368
_cell_angle_beta                        104.665
_cell_angle_gamma                       94.691
_symmetry_space_group_name_H-M          'P 1'
_symmetry_int_tables_number             1
loop_
  _symmetry_equiv_pos_as_xyz
         'x, y, z' 
loop_
  _atom_site_label
  _atom_site_occupancy
  _atom_site_fract_x
  _atom_site_fract_y
  _atom_site_fract_z
  _atom_site_thermal_displace_type
  _atom_site_B_iso_or_equiv
  _atom_site_type_symbol
  _atom_site_charge
         C1        1.0000    0.84040   0.96180   0.11710   Biso      1.000     C          -0.086743           
         C2        1.0000    0.75950   0.61910   0.58290   Biso      1.000     C          0.087852  
         C3        1.0000    0.80400   0.55750   0.39110   Biso      1.000     C          0.082699  
         C4        1.0000    0.76200   0.40760   0.38750   Biso      1.000     C          -0.123081           
         C5        1.0000    0.85600   0.10570   0.09830   Biso      1.000     C          -0.123395           
         C6        1.0000    0.77900   0.13460   0.98390   Biso      1.000     C          0.07533200000000001           
         C7        1.0000    0.66700   0.88810   0.90540   Biso      1.000     C          0.089428  
         C8        1.0000    0.74000   0.85200   0.01700   Biso      1.000     C          -0.132996           
         C9        1.0000    0.28380   0.64100   0.51620   Biso      1.000     C          -0.09976499999999999          
         C10       1.0000    0.28510   0.53140   0.41510   Biso      1.000     C          -0.123973           
         C11       1.0000    0.24050   0.38090   0.41710   Biso      1.000     C          0.087853  
         C12       1.0000    0.19600   0.44250   0.60890   Biso      1.000     C          0.082701  
         C13       1.0000    0.23800   0.59240   0.61250   Biso      1.000     C          -0.123079           
         C14       1.0000    0.15960   0.03820   0.88290   Biso      1.000     C          -0.086744           
         C15       1.0000    0.14400   0.89430   0.90170   Biso      1.000     C          -0.123395           
         C16       1.0000    0.22100   0.86540   0.01610   Biso      1.000     C          0.07533200000000001           
         C17       1.0000    0.33300   0.11190   0.09460   Biso      1.000     C          0.08942699999999999           
         C18       1.0000    0.26000   0.14800   0.98300   Biso      1.000     C          -0.132996           
         C19       1.0000    0.71490   0.46860   0.58490   Biso      1.000     C          -0.123977           
         C20       1.0000    0.71620   0.35900   0.48380   Biso      1.000     C          -0.099768           
         Cu1       1.0000    0.83950   0.87880   0.48816   Biso      1.000     Cu          1.0001790000000002  
         Cu2       1.0000    0.35870   0.92474   0.27853   Biso      1.000     Cu          0.933348  
         Cu3       1.0000    0.16050   0.12120   0.51184   Biso      1.000     Cu          1.0001879999999999  
         Cu4       1.0000    0.64130   0.07526   0.72147   Biso      1.000     Cu          0.93335   
         H1        1.0000    0.20990   0.76740   0.02640   Biso      1.000     H          0.100609  
         H2        1.0000    0.08230   0.81620   0.83750   Biso      1.000     H          0.128176  
         H3        1.0000    0.68500   0.44190   0.65200   Biso      1.000     H          0.13711900000000002           
         H4        1.0000    0.83490   0.58710   0.32550   Biso      1.000     H          0.110626  
         H5        1.0000    0.76530   0.33810   0.31940   Biso      1.000     H          0.126403  
         H6        1.0000    0.91770   0.18380   0.16250   Biso      1.000     H          0.128176  
         H7        1.0000    0.79010   0.23260   0.97360   Biso      1.000     H          0.10061   
         H8        1.0000    0.76120   0.69120   0.65060   Biso      1.000     H          0.105511  
         H9        1.0000    0.23470   0.66190   0.68060   Biso      1.000     H          0.126403  
         H10       1.0000    0.72070   0.75380   0.02550   Biso      1.000     H          0.1279    
         H11       1.0000    0.31500   0.55810   0.34800   Biso      1.000     H          0.13711900000000002           
         H12       1.0000    0.23880   0.30880   0.34940   Biso      1.000     H          0.10550999999999999           
         H13       1.0000    0.16510   0.41290   0.67450   Biso      1.000     H          0.110624  
         H14       1.0000    0.60050   0.81290   0.84030   Biso      1.000     H          0.104395  
         H15       1.0000    0.27930   0.24620   0.97450   Biso      1.000     H          0.127898  
         H16       1.0000    0.39950   0.18710   0.15970   Biso      1.000     H          0.104395  
         N1        1.0000    0.30990   0.97330   0.11220   Biso      1.000     N          -0.23720500000000003          
         N2        1.0000    0.20060   0.33750   0.51160   Biso      1.000     N          -0.22062600000000002          
         N3        1.0000    0.69010   0.02670   0.88780   Biso      1.000     N          -0.23720500000000003          
         N4        1.0000    0.79940   0.66250   0.48840   Biso      1.000     N          -0.220631           
         O1        1.0000    0.10070   0.81170   0.23120   Biso      1.000     O          -0.75741  
         O2        1.0000    0.18080   0.15290   0.68910   Biso      1.000     O          -0.747687           
         O3        1.0000    0.48630   0.88790   0.65070   Biso      1.000     O          -0.751553           
         O4        1.0000    0.45220   0.84390   0.42400   Biso      1.000     O          -0.787326           
         O5        1.0000    0.07350   0.06890   0.33390   Biso      1.000     O          -0.788483           
         O6        1.0000    0.17450   0.90910   0.50630   Biso      1.000     O          -0.792567           
         O7        1.0000    0.81920   0.84710   0.31090   Biso      1.000     O          -0.747695           
         O8        1.0000    0.89930   0.18830   0.76880   Biso      1.000     O          -0.757408           
         O9        1.0000    0.51370   0.11210   0.34930   Biso      1.000     O          -0.751552           
         O10       1.0000    0.82550   0.09090   0.49370   Biso      1.000     O          -0.792574           
         O11       1.0000    0.92650   0.93110   0.66610   Biso      1.000     O          -0.7884899999999999           
         O12       1.0000    0.54780   0.15610   0.57600   Biso      1.000     O          -0.787328           
         P1        1.0000    0.96550   0.91970   0.26090   Biso      1.000     P          1.266131  
         P2        1.0000    0.35320   0.83610   0.52410   Biso      1.000     P          1.297115  
         P3        1.0000    0.03450   0.08030   0.73910   Biso      1.000     P          1.266131  
         P4        1.0000    0.64680   0.16390   0.47590   Biso      1.000     P          1.2971139999999999 