
##########################################################################
#               Crystallographic Information Format file
#               Produced by PyCifRW module
#
#  This is a CIF file.  CIF has been adopted by the International
#  Union of Crystallography as the standard for data archiving and
#  transmission.
#
#  For information on this file format, follow the CIF links at
#  http://www.iucr.org
##########################################################################

data_image0

_cell_length_a                          8.7544
_cell_length_b                          10.0037
_cell_length_c                          11.7895
_cell_angle_alpha                       74.695
_cell_angle_beta                        69.848
_cell_angle_gamma                       86.182
_symmetry_space_group_name_H-M          'P 1'
_symmetry_int_tables_number             1
loop_
  _symmetry_equiv_pos_as_xyz
         'x, y, z' 
loop_
  _atom_site_label
  _atom_site_occupancy
  _atom_site_fract_x
  _atom_site_fract_y
  _atom_site_fract_z
  _atom_site_thermal_displace_type
  _atom_site_B_iso_or_equiv
  _atom_site_type_symbol
  _atom_site_charge
         C1        1.0000    0.71730   0.61190   0.14750   Biso      1.000     C          -0.35182199999999997          
         C2        1.0000    0.18840   0.39650   0.19690   Biso      1.000     C          -0.35507  
         C3        1.0000    0.15490   0.38480   0.08260   Biso      1.000     C          -0.147671           
         C4        1.0000    0.30980   0.38880   0.97320   Biso      1.000     C          -0.14844100000000002          
         C5        1.0000    0.28270   0.38810   0.85250   Biso      1.000     C          -0.35182199999999997          
         C6        1.0000    0.43410   0.41190   0.73900   Biso      1.000     C          0.6978270000000001  
         C7        1.0000    0.03200   0.02230   0.42880   Biso      1.000     C          -0.15577  
         C8        1.0000    0.20750   0.98600   0.37140   Biso      1.000     C          -0.335451           
         C9        1.0000    0.23610   0.83220   0.40460   Biso      1.000     C          0.6688810000000001  
         C10       1.0000    0.95600   0.58550   0.69450   Biso      1.000     C          0.6766840000000001  
         C11       1.0000    0.81160   0.60350   0.80310   Biso      1.000     C          -0.35507  
         C12       1.0000    0.84510   0.61520   0.91740   Biso      1.000     C          -0.14767  
         C13       1.0000    0.69020   0.61120   0.02680   Biso      1.000     C          -0.14844200000000002          
         C14       1.0000    0.79250   0.01400   0.62860   Biso      1.000     C          -0.335453           
         C15       1.0000    0.56590   0.58810   0.26100   Biso      1.000     C          0.697828  
         C16       1.0000    0.04400   0.41450   0.30550   Biso      1.000     C          0.6766840000000001  
         C17       1.0000    0.76390   0.16780   0.59540   Biso      1.000     C          0.668882  
         C18       1.0000    0.96800   0.97770   0.57120   Biso      1.000     C          -0.15576800000000002          
         H1        1.0000    0.37290   0.47160   0.95870   Biso      1.000     H          0.098758  
         H2        1.0000    0.76670   0.70040   0.13640   Biso      1.000     H          0.147491  
         H3        1.0000    0.79380   0.54060   0.16250   Biso      1.000     H          0.141874  
         H4        1.0000    0.62650   0.69070   0.00520   Biso      1.000     H          0.098611  
         H5        1.0000    0.62710   0.52840   0.04130   Biso      1.000     H          0.098758  
         H6        1.0000    0.91300   0.53960   0.94030   Biso      1.000     H          0.095266  
         H7        1.0000    0.90460   0.70150   0.89780   Biso      1.000     H          0.100052  
         H8        1.0000    0.75650   0.68620   0.77480   Biso      1.000     H          0.143899  
         H9        1.0000    0.73680   0.52540   0.82780   Biso      1.000     H          0.146101  
         H10       1.0000    0.27560   0.03300   0.39950   Biso      1.000     H          0.128734  
         H11       1.0000    0.37350   0.30930   0.99480   Biso      1.000     H          0.098611  
         H12       1.0000    0.24020   0.01990   0.28120   Biso      1.000     H          0.136987  
         H13       1.0000    0.96460   0.97850   0.39770   Biso      1.000     H          0.096707  
         H14       1.0000    0.23330   0.29960   0.86360   Biso      1.000     H          0.14749   
         H15       1.0000    0.03540   0.02150   0.60230   Biso      1.000     H          0.096706  
         H16       1.0000    0.97820   0.87820   0.59830   Biso      1.000     H          0.095794  
         H17       1.0000    0.75980   0.98010   0.71880   Biso      1.000     H          0.136987  
         H18       1.0000    0.72440   0.96700   0.60050   Biso      1.000     H          0.128734  
         H19       1.0000    0.26320   0.47460   0.17220   Biso      1.000     H          0.146101  
         H20       1.0000    0.20620   0.45940   0.83750   Biso      1.000     H          0.141875  
         H21       1.0000    0.09540   0.29850   0.10220   Biso      1.000     H          0.100052  
         H22       1.0000    0.08700   0.46040   0.05970   Biso      1.000     H          0.095266  
         H23       1.0000    0.02180   0.12180   0.40170   Biso      1.000     H          0.095795  
         H24       1.0000    0.24350   0.31380   0.22520   Biso      1.000     H          0.143899  
         La1       1.0000    0.25466   0.52247   0.48761   Biso      1.000     La          1.915932  
         La2       1.0000    0.74534   0.47753   0.51239   Biso      1.000     La          1.915932  
         O1        1.0000    0.42720   0.60740   0.25050   Biso      1.000     O          -0.583543           
         O2        1.0000    0.57730   0.54610   0.37000   Biso      1.000     O          -0.730355           
         O3        1.0000    0.09860   0.61780   0.68310   Biso      1.000     O          -0.583094           
         O4        1.0000    0.93320   0.53570   0.61178   Biso      1.000     O          -0.706691           
         O5        1.0000    0.13730   0.74980   0.39950   Biso      1.000     O          -0.6453909999999999           
         O6        1.0000    0.35680   0.78550   0.43760   Biso      1.000     O          -0.6463   
         O7        1.0000    0.57280   0.39260   0.74950   Biso      1.000     O          -0.583543           
         O8        1.0000    0.42270   0.45390   0.63000   Biso      1.000     O          -0.730355           
         O9        1.0000    0.90140   0.38220   0.31690   Biso      1.000     O          -0.583094           
         O10       1.0000    0.06680   0.46430   0.38822   Biso      1.000     O          -0.706691           
         O11       1.0000    0.86270   0.25020   0.60050   Biso      1.000     O          -0.6453909999999999           
         O12       1.0000    0.64320   0.21450   0.56240   Biso      1.000     O          -0.6463 