
##########################################################################
#               Crystallographic Information Format file
#               Produced by PyCifRW module
#
#  This is a CIF file.  CIF has been adopted by the International
#  Union of Crystallography as the standard for data archiving and
#  transmission.
#
#  For information on this file format, follow the CIF links at
#  http://www.iucr.org
##########################################################################

data_image0

_cell_length_a                          7.362
_cell_length_b                          13.908
_cell_length_c                          18.015
_cell_angle_alpha                       90
_cell_angle_beta                        90
_cell_angle_gamma                       90.52
_symmetry_space_group_name_H-M          'P 1'
_symmetry_int_tables_number             1
loop_
  _symmetry_equiv_pos_as_xyz
         'x, y, z' 
loop_
  _atom_site_label
  _atom_site_occupancy
  _atom_site_fract_x
  _atom_site_fract_y
  _atom_site_fract_z
  _atom_site_thermal_displace_type
  _atom_site_B_iso_or_equiv
  _atom_site_type_symbol
  _atom_site_charge
         C1        1.0000    0.46480   0.03030   0.10130   Biso      1.000     C          -0.180633           
         C2        1.0000    0.93080   0.61510   0.35890   Biso      1.000     C          0.100009  
         C3        1.0000    0.48190   0.97740   0.03610   Biso      1.000     C          0.098864  
         C4        1.0000    0.53640   0.12250   0.95640   Biso      1.000     C          -0.18632100000000001          
         C5        1.0000    0.46360   0.87750   0.04360   Biso      1.000     C          -0.186317           
         C6        1.0000    0.43360   0.98430   0.16830   Biso      1.000     C          0.098955  
         C7        1.0000    0.43210   0.83810   0.11150   Biso      1.000     C          0.075303  
         C8        1.0000    0.20220   0.73990   0.23740   Biso      1.000     C          0.052338  
         C9        1.0000    0.57410   0.72530   0.24570   Biso      1.000     C          0.05273200000000001           
         C10       1.0000    0.93280   0.45460   0.33460   Biso      1.000     C          0.109243  
         C11       1.0000    0.59370   0.40270   0.18290   Biso      1.000     C          0.053463  
         C12       1.0000    0.01780   0.99100   0.96040   Biso      1.000     C          0.100712  
         C13       1.0000    0.03520   0.06520   0.90880   Biso      1.000     C          -0.184605           
         C14       1.0000    0.03760   0.89760   0.93220   Biso      1.000     C          -0.181403           
         C15       1.0000    0.06720   0.04540   0.83460   Biso      1.000     C          0.109269  
         C16       1.0000    0.06920   0.88490   0.85890   Biso      1.000     C          0.100049  
         C17       1.0000    0.51810   0.52260   0.53610   Biso      1.000     C          0.098881  
         C18       1.0000    0.53520   0.46970   0.60130   Biso      1.000     C          -0.18062999999999999          
         C19       1.0000    0.53640   0.62250   0.54360   Biso      1.000     C          -0.186317           
         C20       1.0000    0.22040   0.41570   0.18310   Biso      1.000     C          0.052114  
         C21       1.0000    0.56640   0.51570   0.66830   Biso      1.000     C          0.098963  
         C22       1.0000    0.96240   0.60240   0.43220   Biso      1.000     C          -0.181398           
         C23       1.0000    0.98220   0.50900   0.46040   Biso      1.000     C          0.10068300000000001           
         C24       1.0000    0.79780   0.26010   0.76260   Biso      1.000     C          0.052359  
         C25       1.0000    0.42590   0.27470   0.75430   Biso      1.000     C          0.052751  
         C26       1.0000    0.40630   0.59730   0.81710   Biso      1.000     C          0.05349299999999999           
         C27       1.0000    0.77960   0.58430   0.81690   Biso      1.000     C          0.052142999999999995          
         C28       1.0000    0.98220   0.00900   0.03960   Biso      1.000     C          0.10069700000000001           
         C29       1.0000    0.96480   0.93480   0.09120   Biso      1.000     C          -0.184593           
         C30       1.0000    0.96240   0.10240   0.06780   Biso      1.000     C          -0.181395           
         C31       1.0000    0.93280   0.95460   0.16540   Biso      1.000     C          0.10927100000000001           
         C32       1.0000    0.96480   0.43480   0.40880   Biso      1.000     C          -0.184611           
         C33       1.0000    0.93080   0.11510   0.14110   Biso      1.000     C          0.100051  
         C34       1.0000    0.46480   0.53030   0.39870   Biso      1.000     C          -0.180626           
         C35       1.0000    0.46360   0.37750   0.45640   Biso      1.000     C          -0.186317           
         C36       1.0000    0.43360   0.48430   0.33170   Biso      1.000     C          0.098968  
         C37       1.0000    0.43210   0.33810   0.38850   Biso      1.000     C          0.075286  
         C38       1.0000    0.20220   0.23990   0.26260   Biso      1.000     C          0.052375  
         C39       1.0000    0.57410   0.22530   0.25430   Biso      1.000     C          0.052767999999999995          
         C40       1.0000    0.59370   0.90270   0.31710   Biso      1.000     C          0.053503999999999996          
         C41       1.0000    0.22040   0.91570   0.31690   Biso      1.000     C          0.052150999999999996          
         C42       1.0000    0.48190   0.47740   0.46390   Biso      1.000     C          0.09887   
         C43       1.0000    0.56790   0.66190   0.61150   Biso      1.000     C          0.075294  
         C44       1.0000    0.79780   0.76010   0.73740   Biso      1.000     C          0.05235599999999999           
         C45       1.0000    0.42590   0.77470   0.74570   Biso      1.000     C          0.05275   
         C46       1.0000    0.01780   0.49100   0.53960   Biso      1.000     C          0.1007    
         C47       1.0000    0.03520   0.56520   0.59120   Biso      1.000     C          -0.184614           
         C48       1.0000    0.03760   0.39760   0.56780   Biso      1.000     C          -0.18141500000000002          
         C49       1.0000    0.06720   0.54540   0.66540   Biso      1.000     C          0.109253  
         C50       1.0000    0.06920   0.38490   0.64110   Biso      1.000     C          0.10002899999999999           
         C51       1.0000    0.51810   0.02260   0.96390   Biso      1.000     C          0.098876  
         C52       1.0000    0.53520   0.96970   0.89870   Biso      1.000     C          -0.180633           
         C53       1.0000    0.56790   0.16190   0.88850   Biso      1.000     C          0.075296  
         C54       1.0000    0.56640   0.01570   0.83170   Biso      1.000     C          0.098965  
         C55       1.0000    0.40630   0.09730   0.68290   Biso      1.000     C          0.053483  
         C56       1.0000    0.77960   0.08430   0.68310   Biso      1.000     C          0.052131  
         H1        1.0000    0.58160   0.22840   0.88570   Biso      1.000     H          0.10325999999999999           
         H2        1.0000    0.02520   0.62870   0.57570   Biso      1.000     H          0.128529  
         H3        1.0000    0.02910   0.34480   0.53620   Biso      1.000     H          0.134595  
         H4        1.0000    0.08020   0.59660   0.69820   Biso      1.000     H          0.102943  
         H5        1.0000    0.08450   0.32220   0.65770   Biso      1.000     H          0.099979  
         H6        1.0000    0.52550   0.90310   0.90020   Biso      1.000     H          0.126615  
         H7        1.0000    0.58160   0.72840   0.61430   Biso      1.000     H          0.103252  
         H8        1.0000    0.57790   0.47810   0.71070   Biso      1.000     H          0.103545  
         H9        1.0000    0.52700   0.66190   0.50210   Biso      1.000     H          0.13253099999999998           
         H10       1.0000    0.52550   0.40310   0.59980   Biso      1.000     H          0.12661   
         H11       1.0000    0.08450   0.82220   0.84230   Biso      1.000     H          0.09999   
         H12       1.0000    0.08020   0.09660   0.80180   Biso      1.000     H          0.102951  
         H13       1.0000    0.02910   0.84480   0.96380   Biso      1.000     H          0.134607  
         H14       1.0000    0.02520   0.12870   0.92430   Biso      1.000     H          0.128538  
         H15       1.0000    0.41840   0.77160   0.11430   Biso      1.000     H          0.10325999999999999           
         H16       1.0000    0.42210   0.02190   0.21070   Biso      1.000     H          0.10355299999999999           
         H17       1.0000    0.97480   0.87130   0.07570   Biso      1.000     H          0.12854200000000002           
         H18       1.0000    0.97090   0.15520   0.03620   Biso      1.000     H          0.134607  
         H19       1.0000    0.91980   0.90340   0.19820   Biso      1.000     H          0.102959  
         H20       1.0000    0.91550   0.17780   0.15770   Biso      1.000     H          0.099995  
         H21       1.0000    0.47450   0.59690   0.40020   Biso      1.000     H          0.126612  
         H22       1.0000    0.47300   0.33810   0.49790   Biso      1.000     H          0.132528  
         H23       1.0000    0.57790   0.97810   0.78930   Biso      1.000     H          0.10355199999999999           
         H24       1.0000    0.42210   0.52190   0.28930   Biso      1.000     H          0.10355   
         H25       1.0000    0.97480   0.37130   0.42430   Biso      1.000     H          0.128524  
         H26       1.0000    0.97090   0.65520   0.46380   Biso      1.000     H          0.134588  
         H27       1.0000    0.52700   0.16190   0.99790   Biso      1.000     H          0.132535  
         H28       1.0000    0.91550   0.67780   0.34230   Biso      1.000     H          0.099979  
         H29       1.0000    0.47450   0.09690   0.09980   Biso      1.000     H          0.126615  
         H30       1.0000    0.47300   0.83810   0.00210   Biso      1.000     H          0.13253800000000002           
         H31       1.0000    0.41840   0.27160   0.38570   Biso      1.000     H          0.103251  
         H32       1.0000    0.91980   0.40340   0.30180   Biso      1.000     H          0.10294400000000001           
         Mn1       1.0000    0.10103   0.92000   0.68591   Biso      1.000     Mn          0.894739  
         Mn2       1.0000    0.60571   0.68751   0.79171   Biso      1.000     Mn          0.347682  
         Mn3       1.0000    0.10103   0.42000   0.81409   Biso      1.000     Mn          0.894742  
         Mn4       1.0000    0.39429   0.81249   0.29171   Biso      1.000     Mn          0.347673  
         Mn5       1.0000    0.89897   0.08000   0.31409   Biso      1.000     Mn          0.894858  
         Mn6       1.0000    0.39429   0.31249   0.20829   Biso      1.000     Mn          0.34768699999999997           
         Mn7       1.0000    0.89897   0.58000   0.18591   Biso      1.000     Mn          0.89466   
         Mn8       1.0000    0.60571   0.18751   0.70829   Biso      1.000     Mn          0.347669  
         N1        1.0000    0.41920   0.38890   0.32450   Biso      1.000     N          -0.178682           
         N2        1.0000    0.91970   0.04420   0.19210   Biso      1.000     N          -0.220016           
         N3        1.0000    0.67490   0.17480   0.28160   Biso      1.000     N          -0.38765700000000003          
         N4        1.0000    0.70480   0.95820   0.33060   Biso      1.000     N          -0.38353899999999996          
         N5        1.0000    0.12280   0.97630   0.33240   Biso      1.000     N          -0.38559099999999996          
         N6        1.0000    0.08030   0.45580   0.69210   Biso      1.000     N          -0.220029           
         N7        1.0000    0.62180   0.73900   0.86590   Biso      1.000     N          -0.283109           
         N8        1.0000    0.58080   0.11110   0.82450   Biso      1.000     N          -0.178675           
         N9        1.0000    0.37820   0.76100   0.36590   Biso      1.000     N          -0.283068           
         N10       1.0000    0.32510   0.32520   0.78160   Biso      1.000     N          -0.387627           
         N11       1.0000    0.29520   0.54180   0.83060   Biso      1.000     N          -0.38351199999999996          
         N12       1.0000    0.09730   0.19560   0.29550   Biso      1.000     N          -0.396834           
         N13       1.0000    0.09730   0.69560   0.20450   Biso      1.000     N          -0.39681  
         N14       1.0000    0.67490   0.67480   0.21840   Biso      1.000     N          -0.387626           
         N15       1.0000    0.70480   0.45820   0.16940   Biso      1.000     N          -0.383517           
         N16       1.0000    0.87720   0.52370   0.83240   Biso      1.000     N          -0.385565           
         N17       1.0000    0.91970   0.54420   0.30790   Biso      1.000     N          -0.220014           
         N18       1.0000    0.41920   0.88890   0.17550   Biso      1.000     N          -0.178673           
         N19       1.0000    0.37820   0.26100   0.13410   Biso      1.000     N          -0.283107           
         N20       1.0000    0.90270   0.80440   0.70450   Biso      1.000     N          -0.396821           
         N21       1.0000    0.87720   0.02370   0.66760   Biso      1.000     N          -0.385575           
         N22       1.0000    0.29520   0.04180   0.66940   Biso      1.000     N          -0.383524           
         N23       1.0000    0.32510   0.82520   0.71840   Biso      1.000     N          -0.38764299999999996          
         N24       1.0000    0.08030   0.95580   0.80790   Biso      1.000     N          -0.219998           
         N25       1.0000    0.58080   0.61110   0.67550   Biso      1.000     N          -0.17868499999999998          
         N26       1.0000    0.62180   0.23900   0.63410   Biso      1.000     N          -0.283076           
         N27       1.0000    0.12280   0.47630   0.16760   Biso      1.000     N          -0.385569           
         N28       1.0000    0.90270   0.30440   0.79550   Biso      1.000     N          -0.396811 