
##########################################################################
#               Crystallographic Information Format file
#               Produced by PyCifRW module
#
#  This is a CIF file.  CIF has been adopted by the International
#  Union of Crystallography as the standard for data archiving and
#  transmission.
#
#  For information on this file format, follow the CIF links at
#  http://www.iucr.org
##########################################################################

data_image0

_cell_length_a                          8.9142
_cell_length_b                          9.1804
_cell_length_c                          9.1804
_cell_angle_alpha                       76.3663
_cell_angle_beta                        60.9545
_cell_angle_gamma                       60.9546
_symmetry_space_group_name_H-M          'P 1'
_symmetry_int_tables_number             1
loop_
  _symmetry_equiv_pos_as_xyz
         'x, y, z' 
loop_
  _atom_site_label
  _atom_site_occupancy
  _atom_site_fract_x
  _atom_site_fract_y
  _atom_site_fract_z
  _atom_site_thermal_displace_type
  _atom_site_B_iso_or_equiv
  _atom_site_type_symbol
  _atom_site_charge
         C1        1.0000    0.55580   0.52820   0.52060   Biso      1.000     C          0.496255  
         C2        1.0000    0.44420   0.47180   0.47940   Biso      1.000     C          0.496253  
         C3        1.0000    0.89540   0.02820   0.02060   Biso      1.000     C          0.49623199999999995           
         C4        1.0000    0.92360   0.52060   0.97180   Biso      1.000     C          0.49624300000000005           
         C5        1.0000    0.91600   0.97940   0.52820   Biso      1.000     C          0.49624399999999996           
         C6        1.0000    0.10460   0.97180   0.97940   Biso      1.000     C          0.49623100000000003           
         C7        1.0000    0.07640   0.47940   0.02820   Biso      1.000     C          0.496241  
         C8        1.0000    0.08400   0.02060   0.47180   Biso      1.000     C          0.49624399999999996           
         K1        1.0000    0.37500   0.25000   0.25000   Biso      1.000     K          0.8985629999999999  
         K2        1.0000    0.62500   0.75000   0.75000   Biso      1.000     K          0.898565  
         O1        1.0000    0.73595   0.45215   0.44315   Biso      1.000     O          -0.483162           
         O2        1.0000    0.22642   0.85888   0.87568   Biso      1.000     O          -0.5454359999999999           
         O3        1.0000    0.13125   0.04785   0.05685   Biso      1.000     O          -0.483141           
         O4        1.0000    0.26405   0.54785   0.55685   Biso      1.000     O          -0.483162           
         O5        1.0000    0.46098   0.64112   0.62432   Biso      1.000     O          -0.545441           
         O6        1.0000    0.17910   0.55685   0.95215   Biso      1.000     O          -0.483142           
         O7        1.0000    0.08530   0.37568   0.14112   Biso      1.000     O          -0.545443           
         O8        1.0000    0.81190   0.05685   0.45215   Biso      1.000     O          -0.483137           
         O9        1.0000    0.18810   0.94315   0.54785   Biso      1.000     O          -0.483137           
         O10       1.0000    0.82090   0.44315   0.04785   Biso      1.000     O          -0.483142           
         O11       1.0000    0.91470   0.62432   0.85888   Biso      1.000     O          -0.545443           
         O12       1.0000    0.86875   0.95215   0.94315   Biso      1.000     O          -0.483141           
         O13       1.0000    0.77358   0.14112   0.12432   Biso      1.000     O          -0.5454359999999999           
         O14       1.0000    0.10210   0.12432   0.35888   Biso      1.000     O          -0.545441           
         O15       1.0000    0.53902   0.35888   0.37568   Biso      1.000     O          -0.545441           
         O16       1.0000    0.89790   0.87568   0.64112   Biso      1.000     O          -0.545441           
         Yb1       1.0000    0.12500   0.75000   0.75000   Biso      1.000     Yb          1.230808  
         Yb2       1.0000    0.87500   0.25000   0.25000   Biso      1.000     Yb          1.230808 