
##########################################################################
#               Crystallographic Information Format file
#               Produced by PyCifRW module
#
#  This is a CIF file.  CIF has been adopted by the International
#  Union of Crystallography as the standard for data archiving and
#  transmission.
#
#  For information on this file format, follow the CIF links at
#  http://www.iucr.org
##########################################################################

data_image0

_cell_length_a                          23.118
_cell_length_b                          20.9192
_cell_length_c                          12.0021
_cell_angle_alpha                       90
_cell_angle_beta                        111.627
_cell_angle_gamma                       90
_symmetry_space_group_name_H-M          'P 1'
_symmetry_int_tables_number             1
loop_
  _symmetry_equiv_pos_as_xyz
         'x, y, z' 
loop_
  _atom_site_label
  _atom_site_occupancy
  _atom_site_fract_x
  _atom_site_fract_y
  _atom_site_fract_z
  _atom_site_thermal_displace_type
  _atom_site_B_iso_or_equiv
  _atom_site_type_symbol
  _atom_site_charge
         C1        1.0000    0.07190   0.87680   0.97200   Biso      1.000     C          0.597725  
         C2        1.0000    0.13760   0.83930   0.17300   Biso      1.000     C          -0.093993           
         C3        1.0000    0.18490   0.80090   0.24800   Biso      1.000     C          -0.151393           
         C4        1.0000    0.21370   0.75470   0.20600   Biso      1.000     C          0.074685  
         C5        1.0000    0.19640   0.74920   0.07900   Biso      1.000     C          -0.156507           
         C6        1.0000    0.15000   0.78860   0.00600   Biso      1.000     C          -0.0842   
         C7        1.0000    0.12060   0.83310   0.04700   Biso      1.000     C          -0.028999           
         C8        1.0000    0.42810   0.37680   0.52800   Biso      1.000     C          0.597727  
         C9        1.0000    0.37940   0.33310   0.45300   Biso      1.000     C          -0.029019           
         C10       1.0000    0.35000   0.28860   0.49400   Biso      1.000     C          -0.084182           
         C11       1.0000    0.30360   0.24920   0.42100   Biso      1.000     C          -0.156508           
         C12       1.0000    0.90930   0.90200   0.03200   Biso      1.000     C          0.594281  
         C13       1.0000    0.80320   0.76110   0.90000   Biso      1.000     C          -0.155194           
         C14       1.0000    0.85000   0.80000   0.97500   Biso      1.000     C          -0.091299           
         C15       1.0000    0.85990   0.86110   0.94700   Biso      1.000     C          -0.029296           
         C16       1.0000    0.82300   0.88560   0.83800   Biso      1.000     C          -0.091448           
         C17       1.0000    0.77400   0.84910   0.75800   Biso      1.000     C          -0.151172           
         C18       1.0000    0.76450   0.78650   0.78700   Biso      1.000     C          0.079306  
         C19       1.0000    0.35000   0.30000   0.97500   Biso      1.000     C          -0.091299           
         C20       1.0000    0.30320   0.26110   0.90000   Biso      1.000     C          -0.155194           
         C21       1.0000    0.40930   0.40200   0.03200   Biso      1.000     C          0.594281  
         C22       1.0000    0.22600   0.15090   0.24200   Biso      1.000     C          -0.151172           
         C23       1.0000    0.23550   0.21350   0.21300   Biso      1.000     C          0.079306  
         C24       1.0000    0.36240   0.33930   0.32700   Biso      1.000     C          -0.09399  
         C25       1.0000    0.26450   0.71350   0.28700   Biso      1.000     C          0.079306  
         C26       1.0000    0.31510   0.30090   0.25200   Biso      1.000     C          -0.151394           
         C27       1.0000    0.57190   0.62320   0.47200   Biso      1.000     C          0.597727  
         C28       1.0000    0.62060   0.66690   0.54700   Biso      1.000     C          -0.029018           
         C29       1.0000    0.65000   0.71140   0.50600   Biso      1.000     C          -0.084182           
         C30       1.0000    0.69640   0.75080   0.57900   Biso      1.000     C          -0.156507           
         C31       1.0000    0.71370   0.74530   0.70600   Biso      1.000     C          0.074677  
         C32       1.0000    0.63760   0.66070   0.67300   Biso      1.000     C          -0.093992           
         C33       1.0000    0.28630   0.25470   0.29400   Biso      1.000     C          0.074685  
         C34       1.0000    0.35990   0.36110   0.94700   Biso      1.000     C          -0.029296           
         C35       1.0000    0.27400   0.65090   0.25800   Biso      1.000     C          -0.151172           
         C36       1.0000    0.35990   0.63890   0.44700   Biso      1.000     C          -0.029306           
         C37       1.0000    0.59070   0.59800   0.96800   Biso      1.000     C          0.594281  
         C38       1.0000    0.69680   0.73890   0.10000   Biso      1.000     C          -0.155194           
         C39       1.0000    0.65000   0.70000   0.02500   Biso      1.000     C          -0.091299           
         C40       1.0000    0.64010   0.63890   0.05300   Biso      1.000     C          -0.029296           
         C41       1.0000    0.67700   0.61440   0.16200   Biso      1.000     C          -0.091448           
         C42       1.0000    0.72600   0.65090   0.24200   Biso      1.000     C          -0.151172           
         C43       1.0000    0.73550   0.71350   0.21300   Biso      1.000     C          0.079306  
         C44       1.0000    0.86240   0.83930   0.32700   Biso      1.000     C          -0.093993           
         C45       1.0000    0.81510   0.80090   0.25200   Biso      1.000     C          -0.151393           
         C46       1.0000    0.78630   0.75470   0.29400   Biso      1.000     C          0.074685  
         C47       1.0000    0.80360   0.74920   0.42100   Biso      1.000     C          -0.156507           
         C48       1.0000    0.85000   0.78860   0.49400   Biso      1.000     C          -0.0842   
         C49       1.0000    0.87940   0.83310   0.45300   Biso      1.000     C          -0.028999           
         C50       1.0000    0.92810   0.87680   0.52800   Biso      1.000     C          0.597725  
         C51       1.0000    0.90930   0.09800   0.53200   Biso      1.000     C          0.594281  
         C52       1.0000    0.80320   0.23890   0.40000   Biso      1.000     C          -0.155194           
         C53       1.0000    0.85000   0.20000   0.47500   Biso      1.000     C          -0.091299           
         C54       1.0000    0.35000   0.70000   0.47500   Biso      1.000     C          -0.091289           
         C55       1.0000    0.30320   0.73890   0.40000   Biso      1.000     C          -0.155195           
         C56       1.0000    0.40930   0.59800   0.53200   Biso      1.000     C          0.594282  
         C57       1.0000    0.57190   0.37680   0.97200   Biso      1.000     C          0.597727  
         C58       1.0000    0.62060   0.33310   0.04700   Biso      1.000     C          -0.029019           
         C59       1.0000    0.65000   0.28860   0.00600   Biso      1.000     C          -0.084181           
         C60       1.0000    0.32300   0.61440   0.33800   Biso      1.000     C          -0.091447           
         C61       1.0000    0.69640   0.24920   0.07900   Biso      1.000     C          -0.156508           
         C62       1.0000    0.68490   0.30090   0.24800   Biso      1.000     C          -0.151394           
         C63       1.0000    0.63760   0.33930   0.17300   Biso      1.000     C          -0.09399  
         C64       1.0000    0.76450   0.21350   0.28700   Biso      1.000     C          0.079306  
         C65       1.0000    0.77400   0.15090   0.25800   Biso      1.000     C          -0.151172           
         C66       1.0000    0.82300   0.11440   0.33800   Biso      1.000     C          -0.091454           
         C67       1.0000    0.85990   0.13890   0.44700   Biso      1.000     C          -0.029291           
         C68       1.0000    0.71370   0.25470   0.20600   Biso      1.000     C          0.074685  
         C69       1.0000    0.32300   0.38560   0.83800   Biso      1.000     C          -0.091448           
         C70       1.0000    0.68490   0.69910   0.74800   Biso      1.000     C          -0.151385           
         C71       1.0000    0.26450   0.28650   0.78700   Biso      1.000     C          0.079306  
         C72       1.0000    0.36240   0.66070   0.82700   Biso      1.000     C          -0.093992           
         C73       1.0000    0.67700   0.38560   0.66200   Biso      1.000     C          -0.091453           
         C74       1.0000    0.09070   0.90200   0.46800   Biso      1.000     C          0.594281  
         C75       1.0000    0.27400   0.34910   0.75800   Biso      1.000     C          -0.151172           
         C76       1.0000    0.59070   0.40200   0.46800   Biso      1.000     C          0.594281  
         C77       1.0000    0.69680   0.26110   0.60000   Biso      1.000     C          -0.155195           
         C78       1.0000    0.42810   0.62320   0.02800   Biso      1.000     C          0.597727  
         C79       1.0000    0.37940   0.66690   0.95300   Biso      1.000     C          -0.029018           
         C80       1.0000    0.35000   0.71140   0.99400   Biso      1.000     C          -0.084182           
         C81       1.0000    0.30360   0.75080   0.92100   Biso      1.000     C          -0.156507           
         C82       1.0000    0.28630   0.74530   0.79400   Biso      1.000     C          0.074677  
         C83       1.0000    0.19680   0.76110   0.60000   Biso      1.000     C          -0.155194           
         C84       1.0000    0.15000   0.80000   0.52500   Biso      1.000     C          -0.091299           
         C85       1.0000    0.14010   0.86110   0.55300   Biso      1.000     C          -0.029296           
         C86       1.0000    0.17700   0.88560   0.66200   Biso      1.000     C          -0.091448           
         C87       1.0000    0.64010   0.36110   0.55300   Biso      1.000     C          -0.029301           
         C88       1.0000    0.65000   0.30000   0.52500   Biso      1.000     C          -0.09129  
         C89       1.0000    0.22600   0.84910   0.74200   Biso      1.000     C          -0.151172           
         C90       1.0000    0.23550   0.78650   0.71300   Biso      1.000     C          0.079306  
         C91       1.0000    0.73550   0.28650   0.71300   Biso      1.000     C          0.079306  
         C92       1.0000    0.86240   0.16070   0.82700   Biso      1.000     C          -0.09399  
         C93       1.0000    0.72600   0.34910   0.74200   Biso      1.000     C          -0.151172           
         C94       1.0000    0.09070   0.09800   0.96800   Biso      1.000     C          0.594281  
         C95       1.0000    0.13760   0.16070   0.67300   Biso      1.000     C          -0.093993           
         C96       1.0000    0.18490   0.19910   0.74800   Biso      1.000     C          -0.151393           
         C97       1.0000    0.21370   0.24530   0.70600   Biso      1.000     C          0.074685  
         C98       1.0000    0.19640   0.25080   0.57900   Biso      1.000     C          -0.156507           
         C99       1.0000    0.92810   0.12320   0.02800   Biso      1.000     C          0.597727  
         C100      1.0000    0.87940   0.16690   0.95300   Biso      1.000     C          -0.029019           
         C101      1.0000    0.85000   0.21140   0.99400   Biso      1.000     C          -0.084182           
         C102      1.0000    0.80360   0.25080   0.92100   Biso      1.000     C          -0.156508           
         C103      1.0000    0.81510   0.19910   0.75200   Biso      1.000     C          -0.151394           
         C104      1.0000    0.15000   0.21140   0.50600   Biso      1.000     C          -0.0842   
         C105      1.0000    0.12060   0.16690   0.54700   Biso      1.000     C          -0.028999           
         C106      1.0000    0.78630   0.24530   0.79400   Biso      1.000     C          0.074685  
         C107      1.0000    0.17700   0.11440   0.16200   Biso      1.000     C          -0.091453           
         C108      1.0000    0.14010   0.13890   0.05300   Biso      1.000     C          -0.029301           
         C109      1.0000    0.15000   0.20000   0.02500   Biso      1.000     C          -0.09129  
         C110      1.0000    0.19680   0.23890   0.10000   Biso      1.000     C          -0.155195           
         C111      1.0000    0.07190   0.12320   0.47200   Biso      1.000     C          0.597725  
         C112      1.0000    0.31510   0.69910   0.75200   Biso      1.000     C          -0.151385           
         H1        1.0000    0.86190   0.21590   0.07860   Biso      1.000     H          0.113647  
         H2        1.0000    0.78370   0.28100   0.95410   Biso      1.000     H          0.116789  
         H3        1.0000    0.80210   0.19310   0.66770   Biso      1.000     H          0.111323  
         H4        1.0000    0.88310   0.13090   0.79460   Biso      1.000     H          0.110352  
         H5        1.0000    0.75250   0.36730   0.81550   Biso      1.000     H          0.120131  
         H6        1.0000    0.62350   0.28340   0.45040   Biso      1.000     H          0.116154  
         H7        1.0000    0.70270   0.21900   0.57670   Biso      1.000     H          0.123706  
         H8        1.0000    0.08200   0.00030   0.21770   Biso      1.000     H          0.416277  
         H9        1.0000    0.25250   0.13270   0.31550   Biso      1.000     H          0.120131  
         H10       1.0000    0.66960   0.42770   0.68330   Biso      1.000     H          0.110951  
         H11       1.0000    0.87650   0.21660   0.54960   Biso      1.000     H          0.116154  
         H12       1.0000    0.71630   0.21900   0.04590   Biso      1.000     H          0.116789  
         H13       1.0000    0.58200   0.49970   0.71770   Biso      1.000     H          0.416277  
         H14       1.0000    0.20270   0.28100   0.07670   Biso      1.000     H          0.123706  
         H15       1.0000    0.12350   0.21660   0.95040   Biso      1.000     H          0.116154  
         H16       1.0000    0.16960   0.07230   0.18330   Biso      1.000     H          0.110951  
         H17       1.0000    0.80210   0.80690   0.16770   Biso      1.000     H          0.111323  
         H18       1.0000    0.88310   0.86910   0.29460   Biso      1.000     H          0.110352  
         H19       1.0000    0.75250   0.63270   0.31550   Biso      1.000     H          0.120131  
         H20       1.0000    0.63810   0.28410   0.92140   Biso      1.000     H          0.113647  
         H21       1.0000    0.66960   0.57230   0.18330   Biso      1.000     H          0.110951  
         H22       1.0000    0.41800   0.49970   0.78230   Biso      1.000     H          0.416277  
         H23       1.0000    0.79730   0.28100   0.42330   Biso      1.000     H          0.123706  
         H24       1.0000    0.70270   0.78100   0.07670   Biso      1.000     H          0.123706  
         H25       1.0000    0.83040   0.07230   0.31670   Biso      1.000     H          0.110951  
         H26       1.0000    0.74750   0.13270   0.18450   Biso      1.000     H          0.120131  
         H27       1.0000    0.61690   0.36910   0.20540   Biso      1.000     H          0.110352  
         H28       1.0000    0.69790   0.30690   0.33230   Biso      1.000     H          0.111323  
         H29       1.0000    0.62350   0.71660   0.95040   Biso      1.000     H          0.116154  
         H30       1.0000    0.08200   0.99970   0.71770   Biso      1.000     H          0.416277  
         H31       1.0000    0.30210   0.30690   0.16770   Biso      1.000     H          0.111323  
         H32       1.0000    0.69790   0.69310   0.83230   Biso      1.000     H          0.111322  
         H33       1.0000    0.36190   0.71590   0.07860   Biso      1.000     H          0.113647  
         H34       1.0000    0.28370   0.78100   0.95410   Biso      1.000     H          0.116789  
         H35       1.0000    0.30210   0.69310   0.66770   Biso      1.000     H          0.111322  
         H36       1.0000    0.38310   0.63090   0.79460   Biso      1.000     H          0.110352  
         H37       1.0000    0.25250   0.86730   0.81550   Biso      1.000     H          0.120131  
         H38       1.0000    0.16960   0.92770   0.68330   Biso      1.000     H          0.110951  
         H39       1.0000    0.12350   0.78340   0.45040   Biso      1.000     H          0.116154  
         H40       1.0000    0.86190   0.78410   0.57860   Biso      1.000     H          0.113648  
         H41       1.0000    0.20270   0.71900   0.57670   Biso      1.000     H          0.123706  
         H42       1.0000    0.58200   0.50030   0.21770   Biso      1.000     H          0.416277  
         H43       1.0000    0.91800   0.00030   0.28230   Biso      1.000     H          0.416277  
         H44       1.0000    0.29730   0.21900   0.92330   Biso      1.000     H          0.123706  
         H45       1.0000    0.37650   0.28340   0.04960   Biso      1.000     H          0.116154  
         H46       1.0000    0.33040   0.42770   0.81670   Biso      1.000     H          0.110951  
         H47       1.0000    0.24750   0.36730   0.68450   Biso      1.000     H          0.120131  
         H48       1.0000    0.11690   0.13090   0.70540   Biso      1.000     H          0.110352  
         H49       1.0000    0.19790   0.19310   0.83230   Biso      1.000     H          0.111323  
         H50       1.0000    0.21630   0.28100   0.54590   Biso      1.000     H          0.116789  
         H51       1.0000    0.13810   0.21590   0.42140   Biso      1.000     H          0.113648  
         H52       1.0000    0.63810   0.71590   0.42140   Biso      1.000     H          0.113647  
         H53       1.0000    0.71630   0.78100   0.54590   Biso      1.000     H          0.116789  
         H54       1.0000    0.78370   0.71900   0.45410   Biso      1.000     H          0.116789  
         H55       1.0000    0.61690   0.63090   0.70540   Biso      1.000     H          0.110352  
         H56       1.0000    0.91800   0.99970   0.78230   Biso      1.000     H          0.416277  
         H57       1.0000    0.29730   0.78100   0.42330   Biso      1.000     H          0.123706  
         H58       1.0000    0.37650   0.71660   0.54960   Biso      1.000     H          0.116154  
         H59       1.0000    0.33040   0.57230   0.31670   Biso      1.000     H          0.110951  
         H60       1.0000    0.24750   0.63270   0.18450   Biso      1.000     H          0.120131  
         H61       1.0000    0.11690   0.86910   0.20540   Biso      1.000     H          0.110352  
         H62       1.0000    0.19790   0.80690   0.33230   Biso      1.000     H          0.111323  
         H63       1.0000    0.21630   0.71900   0.04590   Biso      1.000     H          0.116789  
         H64       1.0000    0.38310   0.36910   0.29460   Biso      1.000     H          0.110352  
         H65       1.0000    0.13810   0.78410   0.92140   Biso      1.000     H          0.113648  
         H66       1.0000    0.36190   0.28410   0.57860   Biso      1.000     H          0.113647  
         H67       1.0000    0.41800   0.50030   0.28230   Biso      1.000     H          0.416277  
         H68       1.0000    0.79730   0.71900   0.92330   Biso      1.000     H          0.123706  
         H69       1.0000    0.87650   0.78340   0.04960   Biso      1.000     H          0.116154  
         H70       1.0000    0.83040   0.92770   0.81670   Biso      1.000     H          0.110951  
         H71       1.0000    0.74750   0.86730   0.68450   Biso      1.000     H          0.120131  
         H72       1.0000    0.28370   0.21900   0.45410   Biso      1.000     H          0.116789  
         O1        1.0000    0.53780   0.49960   0.68550   Biso      1.000     O          -0.872542           
         O2        1.0000    0.05820   0.12410   0.86610   Biso      1.000     O          -0.552546           
         O3        1.0000    0.08070   0.04330   0.99720   Biso      1.000     O          -0.584593           
         O4        1.0000    0.45870   0.41020   0.48700   Biso      1.000     O          -0.545456           
         O5        1.0000    0.43400   0.37540   0.64400   Biso      1.000     O          -0.589852           
         O6        1.0000    0.03780   0.00040   0.18550   Biso      1.000     O          -0.872543           
         O7        1.0000    0.55820   0.62410   0.86610   Biso      1.000     O          -0.552546           
         O8        1.0000    0.41930   0.45670   0.00280   Biso      1.000     O          -0.584594           
         O9        1.0000    0.44180   0.37590   0.13390   Biso      1.000     O          -0.552546           
         O10       1.0000    0.58070   0.54330   0.99720   Biso      1.000     O          -0.584594           
         O11       1.0000    0.06600   0.12460   0.35600   Biso      1.000     O          -0.589851           
         O12       1.0000    0.96220   0.00040   0.31450   Biso      1.000     O          -0.872543           
         O13       1.0000    0.08070   0.95670   0.49720   Biso      1.000     O          -0.584594           
         O14       1.0000    0.46220   0.50040   0.31450   Biso      1.000     O          -0.872542           
         O15       1.0000    0.05820   0.87590   0.36610   Biso      1.000     O          -0.552546           
         O16       1.0000    0.43400   0.62460   0.14400   Biso      1.000     O          -0.589852           
         O17       1.0000    0.53780   0.50040   0.18550   Biso      1.000     O          -0.872542           
         O18       1.0000    0.58070   0.45670   0.49720   Biso      1.000     O          -0.584593           
         O19       1.0000    0.55820   0.37590   0.36610   Biso      1.000     O          -0.552546           
         O20       1.0000    0.95870   0.08980   0.98700   Biso      1.000     O          -0.545456           
         O21       1.0000    0.93400   0.12460   0.14400   Biso      1.000     O          -0.589851           
         O22       1.0000    0.45870   0.58980   0.98700   Biso      1.000     O          -0.545456           
         O23       1.0000    0.56600   0.62460   0.35600   Biso      1.000     O          -0.589852           
         O24       1.0000    0.04130   0.08980   0.51300   Biso      1.000     O          -0.545456           
         O25       1.0000    0.94180   0.87590   0.13390   Biso      1.000     O          -0.552546           
         O26       1.0000    0.95870   0.91020   0.48700   Biso      1.000     O          -0.545456           
         O27       1.0000    0.93400   0.87540   0.64400   Biso      1.000     O          -0.589851           
         O28       1.0000    0.54130   0.58980   0.51300   Biso      1.000     O          -0.545456           
         O29       1.0000    0.91930   0.04330   0.50280   Biso      1.000     O          -0.584594           
         O30       1.0000    0.94180   0.12410   0.63390   Biso      1.000     O          -0.552546           
         O31       1.0000    0.54130   0.41020   0.01300   Biso      1.000     O          -0.545456           
         O32       1.0000    0.56600   0.37540   0.85600   Biso      1.000     O          -0.589851           
         O33       1.0000    0.03780   0.99960   0.68550   Biso      1.000     O          -0.872542           
         O34       1.0000    0.41930   0.54330   0.50280   Biso      1.000     O          -0.584593           
         O35       1.0000    0.44180   0.62410   0.63390   Biso      1.000     O          -0.552546           
         O36       1.0000    0.04130   0.91020   0.01300   Biso      1.000     O          -0.545456           
         O37       1.0000    0.06600   0.87540   0.85600   Biso      1.000     O          -0.589851           
         O38       1.0000    0.96220   0.99960   0.81450   Biso      1.000     O          -0.872542           
         O39       1.0000    0.91930   0.95670   0.00280   Biso      1.000     O          -0.584594           
         O40       1.0000    0.46220   0.49960   0.81450   Biso      1.000     O          -0.872542           
         Zn1       1.0000    0.50000   0.42910   0.75000   Biso      1.000     Zn          0.950799  
         Zn2       1.0000    0.00000   0.06820   0.75000   Biso      1.000     Zn          0.966736  
         Zn3       1.0000    0.00000   0.92910   0.75000   Biso      1.000     Zn          0.950798  
         Zn4       1.0000    0.50000   0.43180   0.25000   Biso      1.000     Zn          0.966736  
         Zn5       1.0000    0.50000   0.57090   0.25000   Biso      1.000     Zn          0.950799  
         Zn6       1.0000    0.00000   0.00000   0.50000   Biso      1.000     Zn          1.068792  
         Zn7       1.0000    0.00000   0.07090   0.25000   Biso      1.000     Zn          0.950799  
         Zn8       1.0000    0.50000   0.50000   0.50000   Biso      1.000     Zn          1.068791  
         Zn9       1.0000    0.50000   0.50000   0.00000   Biso      1.000     Zn          1.068791  
         Zn10      1.0000    0.00000   0.00000   0.00000   Biso      1.000     Zn          1.068791  
         Zn11      1.0000    0.00000   0.93180   0.25000   Biso      1.000     Zn          0.966736  
         Zn12      1.0000    0.50000   0.56820   0.75000   Biso      1.000     Zn          0.966736 