
##########################################################################
#               Crystallographic Information Format file
#               Produced by PyCifRW module
#
#  This is a CIF file.  CIF has been adopted by the International
#  Union of Crystallography as the standard for data archiving and
#  transmission.
#
#  For information on this file format, follow the CIF links at
#  http://www.iucr.org
##########################################################################

data_image0

_cell_length_a                          20.1658
_cell_length_b                          18.5518
_cell_length_c                          12.158
_cell_angle_alpha                       90
_cell_angle_beta                        95.331
_cell_angle_gamma                       90
_symmetry_space_group_name_H-M          'P 1'
_symmetry_int_tables_number             1
loop_
  _symmetry_equiv_pos_as_xyz
         'x, y, z' 
loop_
  _atom_site_label
  _atom_site_occupancy
  _atom_site_fract_x
  _atom_site_fract_y
  _atom_site_fract_z
  _atom_site_thermal_displace_type
  _atom_site_B_iso_or_equiv
  _atom_site_type_symbol
  _atom_site_charge
         C1        1.0000    0.58500   0.36710   0.42700   Biso      1.000     C          0.612187  
         C2        1.0000    0.16520   0.17320   0.08650   Biso      1.000     C          -0.109205           
         C3        1.0000    0.23930   0.25170   0.94210   Biso      1.000     C          0.083822  
         C4        1.0000    0.18120   0.21310   0.90100   Biso      1.000     C          -0.157592           
         C5        1.0000    0.14520   0.17450   0.97100   Biso      1.000     C          -0.028314           
         C6        1.0000    0.08500   0.13290   0.92700   Biso      1.000     C          0.612186  
         C7        1.0000    0.23170   0.26140   0.45030   Biso      1.000     C          0.084094  
         C8        1.0000    0.32450   0.27940   0.58990   Biso      1.000     C          -0.15596  
         C9        1.0000    0.25050   0.32490   0.39950   Biso      1.000     C          -0.14207  
         C10       1.0000    0.30410   0.36450   0.44200   Biso      1.000     C          -0.108635           
         C11       1.0000    0.34280   0.34130   0.53970   Biso      1.000     C          -0.026163           
         C12       1.0000    0.40130   0.38500   0.58650   Biso      1.000     C          0.606055  
         C13       1.0000    0.77760   0.20890   0.37290   Biso      1.000     C          -0.146296           
         C14       1.0000    0.66520   0.32680   0.58650   Biso      1.000     C          -0.109205           
         C15       1.0000    0.73930   0.24830   0.44210   Biso      1.000     C          0.083822  
         C16       1.0000    0.68120   0.28690   0.40100   Biso      1.000     C          -0.157592           
         C17       1.0000    0.64520   0.32550   0.47100   Biso      1.000     C          -0.028314           
         C18       1.0000    0.41500   0.63290   0.57300   Biso      1.000     C          0.612187  
         C19       1.0000    0.35480   0.67450   0.52900   Biso      1.000     C          -0.02832  
         C20       1.0000    0.31880   0.71310   0.59900   Biso      1.000     C          -0.157586           
         C21       1.0000    0.73170   0.76140   0.45030   Biso      1.000     C          0.084094  
         C22       1.0000    0.82450   0.77940   0.58990   Biso      1.000     C          -0.15596  
         C23       1.0000    0.75050   0.82490   0.39950   Biso      1.000     C          -0.14207  
         C24       1.0000    0.80410   0.86450   0.44200   Biso      1.000     C          -0.108635           
         C25       1.0000    0.84280   0.84130   0.53970   Biso      1.000     C          -0.026163           
         C26       1.0000    0.90130   0.88500   0.58650   Biso      1.000     C          0.606054  
         C27       1.0000    0.27760   0.29110   0.87290   Biso      1.000     C          -0.146296           
         C28       1.0000    0.90130   0.11500   0.08650   Biso      1.000     C          0.606055  
         C29       1.0000    0.84280   0.15870   0.03970   Biso      1.000     C          -0.026167           
         C30       1.0000    0.80410   0.13550   0.94200   Biso      1.000     C          -0.108644           
         C31       1.0000    0.83480   0.17320   0.41350   Biso      1.000     C          -0.109203           
         C32       1.0000    0.76070   0.25170   0.55790   Biso      1.000     C          0.083822  
         C33       1.0000    0.81880   0.21310   0.59900   Biso      1.000     C          -0.157592           
         C34       1.0000    0.85480   0.17450   0.52900   Biso      1.000     C          -0.028314           
         C35       1.0000    0.91500   0.13290   0.57300   Biso      1.000     C          0.612186  
         C36       1.0000    0.09870   0.11500   0.41350   Biso      1.000     C          0.606055  
         C37       1.0000    0.15720   0.15870   0.46030   Biso      1.000     C          -0.026167           
         C38       1.0000    0.19590   0.13550   0.55800   Biso      1.000     C          -0.108644           
         C39       1.0000    0.23170   0.73860   0.95030   Biso      1.000     C          0.084094  
         C40       1.0000    0.32450   0.72060   0.08990   Biso      1.000     C          -0.15596  
         C41       1.0000    0.25050   0.67510   0.89950   Biso      1.000     C          -0.14207  
         C42       1.0000    0.30410   0.63550   0.94200   Biso      1.000     C          -0.108635           
         C43       1.0000    0.27760   0.70890   0.37290   Biso      1.000     C          -0.146296           
         C44       1.0000    0.34280   0.65870   0.03970   Biso      1.000     C          -0.026162           
         C45       1.0000    0.77760   0.79110   0.87290   Biso      1.000     C          -0.146296           
         C46       1.0000    0.66520   0.67320   0.08650   Biso      1.000     C          -0.109205           
         C47       1.0000    0.73930   0.75170   0.94210   Biso      1.000     C          0.083822  
         C48       1.0000    0.68120   0.71310   0.90100   Biso      1.000     C          -0.157592           
         C49       1.0000    0.64520   0.67450   0.97100   Biso      1.000     C          -0.028314           
         C50       1.0000    0.58500   0.63290   0.92700   Biso      1.000     C          0.612186  
         C51       1.0000    0.24950   0.17510   0.60050   Biso      1.000     C          -0.142061           
         C52       1.0000    0.17550   0.22060   0.41010   Biso      1.000     C          -0.155954           
         C53       1.0000    0.26830   0.23860   0.54970   Biso      1.000     C          0.084093  
         C54       1.0000    0.73170   0.23860   0.95030   Biso      1.000     C          0.084093  
         C55       1.0000    0.82450   0.22060   0.08990   Biso      1.000     C          -0.155954           
         C56       1.0000    0.75050   0.17510   0.89950   Biso      1.000     C          -0.142061           
         C57       1.0000    0.40130   0.61500   0.08650   Biso      1.000     C          0.606054  
         C58       1.0000    0.16520   0.82680   0.58650   Biso      1.000     C          -0.109204           
         C59       1.0000    0.72240   0.29110   0.62710   Biso      1.000     C          -0.146294           
         C60       1.0000    0.65720   0.34130   0.96030   Biso      1.000     C          -0.026167           
         C61       1.0000    0.83480   0.82680   0.91350   Biso      1.000     C          -0.109203           
         C62       1.0000    0.69590   0.36450   0.05800   Biso      1.000     C          -0.108644           
         C63       1.0000    0.26830   0.76140   0.04970   Biso      1.000     C          0.084093  
         C64       1.0000    0.59870   0.38500   0.91350   Biso      1.000     C          0.606055  
         C65       1.0000    0.72240   0.70890   0.12710   Biso      1.000     C          -0.146294           
         C66       1.0000    0.22240   0.20890   0.12710   Biso      1.000     C          -0.146294           
         C67       1.0000    0.09870   0.88500   0.91350   Biso      1.000     C          0.606055  
         C68       1.0000    0.15720   0.84130   0.96030   Biso      1.000     C          -0.026167           
         C69       1.0000    0.19590   0.86450   0.05800   Biso      1.000     C          -0.108644           
         C70       1.0000    0.74950   0.32490   0.10050   Biso      1.000     C          -0.142061           
         C71       1.0000    0.24950   0.82490   0.10050   Biso      1.000     C          -0.142061           
         C72       1.0000    0.26070   0.24830   0.05790   Biso      1.000     C          0.083822  
         C73       1.0000    0.17550   0.77940   0.91010   Biso      1.000     C          -0.155954           
         C74       1.0000    0.31880   0.28690   0.09900   Biso      1.000     C          -0.157592           
         C75       1.0000    0.35480   0.32550   0.02900   Biso      1.000     C          -0.028314           
         C76       1.0000    0.23930   0.74830   0.44210   Biso      1.000     C          0.083822  
         C77       1.0000    0.41500   0.36710   0.07300   Biso      1.000     C          0.612186  
         C78       1.0000    0.59870   0.61500   0.41350   Biso      1.000     C          0.606055  
         C79       1.0000    0.65720   0.65870   0.46030   Biso      1.000     C          -0.026167           
         C80       1.0000    0.69590   0.63550   0.55800   Biso      1.000     C          -0.108644           
         C81       1.0000    0.33480   0.32680   0.91350   Biso      1.000     C          -0.109203           
         C82       1.0000    0.76070   0.74830   0.05790   Biso      1.000     C          0.083821  
         C83       1.0000    0.74950   0.67510   0.60050   Biso      1.000     C          -0.142061           
         C84       1.0000    0.67550   0.27940   0.91010   Biso      1.000     C          -0.155954           
         C85       1.0000    0.33480   0.67320   0.41350   Biso      1.000     C          -0.109203           
         C86       1.0000    0.22240   0.79110   0.62710   Biso      1.000     C          -0.146294           
         C87       1.0000    0.26070   0.75170   0.55790   Biso      1.000     C          0.083822  
         C88       1.0000    0.08500   0.86710   0.42700   Biso      1.000     C          0.612187  
         C89       1.0000    0.91500   0.86710   0.07300   Biso      1.000     C          0.612187  
         C90       1.0000    0.14520   0.82550   0.47100   Biso      1.000     C          -0.02832  
         C91       1.0000    0.85480   0.82550   0.02900   Biso      1.000     C          -0.02832  
         C92       1.0000    0.67550   0.72060   0.41010   Biso      1.000     C          -0.155954           
         C93       1.0000    0.76830   0.73860   0.54970   Biso      1.000     C          0.084093  
         C94       1.0000    0.76830   0.26140   0.04970   Biso      1.000     C          0.084093  
         C95       1.0000    0.18120   0.78690   0.40100   Biso      1.000     C          -0.157586           
         C96       1.0000    0.81880   0.78690   0.09900   Biso      1.000     C          -0.157586           
         H1        1.0000    0.27450   0.84090   0.16600   Biso      1.000     H          0.121399  
         H2        1.0000    0.07880   0.99000   0.16200   Biso      1.000     H          0.448619  
         H3        1.0000    0.14950   0.76330   0.84560   Biso      1.000     H          0.123732  
         H4        1.0000    0.14950   0.23670   0.34560   Biso      1.000     H          0.123732  
         H5        1.0000    0.83280   0.21410   0.67580   Biso      1.000     H          0.125758  
         H6        1.0000    0.42120   0.51000   0.83800   Biso      1.000     H          0.448619  
         H7        1.0000    0.27450   0.15910   0.66600   Biso      1.000     H          0.121399  
         H8        1.0000    0.18440   0.90760   0.09380   Biso      1.000     H          0.116121  
         H9        1.0000    0.77450   0.65910   0.66600   Biso      1.000     H          0.121399  
         H10       1.0000    0.35050   0.73670   0.15440   Biso      1.000     H          0.123733  
         H11       1.0000    0.66720   0.71410   0.82420   Biso      1.000     H          0.125758  
         H12       1.0000    0.73610   0.29330   0.70400   Biso      1.000     H          0.11274   
         H13       1.0000    0.63930   0.64790   0.13530   Biso      1.000     H          0.114618  
         H14       1.0000    0.76390   0.79330   0.79600   Biso      1.000     H          0.11274   
         H15       1.0000    0.73610   0.70670   0.20400   Biso      1.000     H          0.11274   
         H16       1.0000    0.86070   0.85210   0.86470   Biso      1.000     H          0.114618  
         H17       1.0000    0.07880   0.01000   0.66200   Biso      1.000     H          0.448619  
         H18       1.0000    0.18440   0.09240   0.59380   Biso      1.000     H          0.116121  
         H19       1.0000    0.31560   0.59240   0.90620   Biso      1.000     H          0.116121  
         H20       1.0000    0.83280   0.78590   0.17580   Biso      1.000     H          0.125758  
         H21       1.0000    0.22550   0.65910   0.83400   Biso      1.000     H          0.121399  
         H22       1.0000    0.64950   0.73670   0.34560   Biso      1.000     H          0.123732  
         H23       1.0000    0.16720   0.78590   0.32420   Biso      1.000     H          0.125758  
         H24       1.0000    0.13930   0.14790   0.13530   Biso      1.000     H          0.114618  
         H25       1.0000    0.57880   0.49000   0.16200   Biso      1.000     H          0.448619  
         H26       1.0000    0.63930   0.35210   0.63530   Biso      1.000     H          0.114618  
         H27       1.0000    0.77450   0.34090   0.16600   Biso      1.000     H          0.121399  
         H28       1.0000    0.66720   0.28590   0.32420   Biso      1.000     H          0.125758  
         H29       1.0000    0.64950   0.26330   0.84560   Biso      1.000     H          0.123732  
         H30       1.0000    0.86070   0.14790   0.36470   Biso      1.000     H          0.114618  
         H31       1.0000    0.23610   0.79330   0.70400   Biso      1.000     H          0.11274   
         H32       1.0000    0.92120   0.99000   0.33800   Biso      1.000     H          0.448619  
         H33       1.0000    0.42120   0.49000   0.33800   Biso      1.000     H          0.448619  
         H34       1.0000    0.33280   0.71410   0.67580   Biso      1.000     H          0.125758  
         H35       1.0000    0.85050   0.76330   0.65440   Biso      1.000     H          0.123733  
         H36       1.0000    0.36070   0.64790   0.36470   Biso      1.000     H          0.114618  
         H37       1.0000    0.72550   0.84090   0.33400   Biso      1.000     H          0.121399  
         H38       1.0000    0.81560   0.90760   0.40620   Biso      1.000     H          0.116121  
         H39       1.0000    0.26390   0.70670   0.29600   Biso      1.000     H          0.11274   
         H40       1.0000    0.13930   0.85210   0.63530   Biso      1.000     H          0.114618  
         H41       1.0000    0.68440   0.40760   0.09380   Biso      1.000     H          0.116121  
         H42       1.0000    0.85050   0.23670   0.15440   Biso      1.000     H          0.123732  
         H43       1.0000    0.76390   0.20670   0.29600   Biso      1.000     H          0.11274   
         H44       1.0000    0.23610   0.20670   0.20400   Biso      1.000     H          0.11274   
         H45       1.0000    0.72550   0.15910   0.83400   Biso      1.000     H          0.121399  
         H46       1.0000    0.68440   0.59240   0.59380   Biso      1.000     H          0.116121  
         H47       1.0000    0.81560   0.09240   0.90620   Biso      1.000     H          0.116121  
         H48       1.0000    0.26390   0.29330   0.79600   Biso      1.000     H          0.11274   
         H49       1.0000    0.16720   0.21410   0.82420   Biso      1.000     H          0.125758  
         H50       1.0000    0.33280   0.28590   0.17580   Biso      1.000     H          0.125758  
         H51       1.0000    0.31560   0.40760   0.40620   Biso      1.000     H          0.116121  
         H52       1.0000    0.57880   0.51000   0.66200   Biso      1.000     H          0.448619  
         H53       1.0000    0.92120   0.01000   0.83800   Biso      1.000     H          0.448619  
         H54       1.0000    0.36070   0.35210   0.86470   Biso      1.000     H          0.114618  
         H55       1.0000    0.35050   0.26330   0.65440   Biso      1.000     H          0.123733  
         H56       1.0000    0.22550   0.34090   0.33400   Biso      1.000     H          0.121399  
         O1        1.0000    0.42890   0.63530   0.67730   Biso      1.000     O          -0.568799           
         O2        1.0000    0.53810   0.50070   0.66150   Biso      1.000     O          -0.916474           
         O3        1.0000    0.58730   0.55560   0.46010   Biso      1.000     O          -0.594633           
         O4        1.0000    0.56710   0.63850   0.32680   Biso      1.000     O          -0.542126           
         O5        1.0000    0.44830   0.60000   0.50790   Biso      1.000     O          -0.574857           
         O6        1.0000    0.03810   0.99930   0.16150   Biso      1.000     O          -0.916474           
         O7        1.0000    0.91270   0.05560   0.03990   Biso      1.000     O          -0.594633           
         O8        1.0000    0.06710   0.13850   0.32680   Biso      1.000     O          -0.542126           
         O9        1.0000    0.91270   0.94440   0.53990   Biso      1.000     O          -0.594634           
         O10       1.0000    0.93290   0.86150   0.67320   Biso      1.000     O          -0.542126           
         O11       1.0000    0.07110   0.86470   0.32270   Biso      1.000     O          -0.568799           
         O12       1.0000    0.08730   0.05560   0.46010   Biso      1.000     O          -0.594633           
         O13       1.0000    0.96190   0.99930   0.33850   Biso      1.000     O          -0.916474           
         O14       1.0000    0.58730   0.44440   0.96010   Biso      1.000     O          -0.594633           
         O15       1.0000    0.46190   0.49930   0.33850   Biso      1.000     O          -0.916474           
         O16       1.0000    0.56710   0.36150   0.82680   Biso      1.000     O          -0.542126           
         O17       1.0000    0.44830   0.40000   0.00790   Biso      1.000     O          -0.574857           
         O18       1.0000    0.53810   0.49930   0.16150   Biso      1.000     O          -0.916474           
         O19       1.0000    0.08730   0.94440   0.96010   Biso      1.000     O          -0.594633           
         O20       1.0000    0.06710   0.86150   0.82680   Biso      1.000     O          -0.542126           
         O21       1.0000    0.92890   0.86470   0.17730   Biso      1.000     O          -0.568799           
         O22       1.0000    0.94830   0.90000   0.00790   Biso      1.000     O          -0.574857           
         O23       1.0000    0.42890   0.36470   0.17730   Biso      1.000     O          -0.568799           
         O24       1.0000    0.55170   0.40000   0.49210   Biso      1.000     O          -0.574857           
         O25       1.0000    0.05170   0.90000   0.49210   Biso      1.000     O          -0.574857           
         O26       1.0000    0.43290   0.36150   0.67320   Biso      1.000     O          -0.542126           
         O27       1.0000    0.92890   0.13530   0.67730   Biso      1.000     O          -0.568799           
         O28       1.0000    0.57110   0.36470   0.32270   Biso      1.000     O          -0.568799           
         O29       1.0000    0.03810   0.00070   0.66150   Biso      1.000     O          -0.916474           
         O30       1.0000    0.41270   0.55560   0.03990   Biso      1.000     O          -0.594634           
         O31       1.0000    0.43290   0.63850   0.17320   Biso      1.000     O          -0.542126           
         O32       1.0000    0.57110   0.63530   0.82270   Biso      1.000     O          -0.568799           
         O33       1.0000    0.55170   0.60000   0.99210   Biso      1.000     O          -0.574857           
         O34       1.0000    0.94830   0.10000   0.50790   Biso      1.000     O          -0.574857           
         O35       1.0000    0.93290   0.13850   0.17320   Biso      1.000     O          -0.542126           
         O36       1.0000    0.07110   0.13530   0.82270   Biso      1.000     O          -0.568799           
         O37       1.0000    0.05170   0.10000   0.99210   Biso      1.000     O          -0.574857           
         O38       1.0000    0.96190   0.00070   0.83850   Biso      1.000     O          -0.916474           
         O39       1.0000    0.41270   0.44440   0.53990   Biso      1.000     O          -0.594634           
         O40       1.0000    0.46190   0.50070   0.83850   Biso      1.000     O          -0.916474           
         Zn1       1.0000    0.50000   0.57877   0.75000   Biso      1.000     Zn          0.966388  
         Zn2       1.0000    0.00000   0.92215   0.75000   Biso      1.000     Zn          1.022099  
         Zn3       1.0000    0.00000   0.07877   0.75000   Biso      1.000     Zn          0.966388  
         Zn4       1.0000    0.50000   0.57785   0.25000   Biso      1.000     Zn          1.022099  
         Zn5       1.0000    0.50000   0.42123   0.25000   Biso      1.000     Zn          0.966388  
         Zn6       1.0000    0.00000   0.00000   0.50000   Biso      1.000     Zn          1.055465  
         Zn7       1.0000    0.00000   0.92123   0.25000   Biso      1.000     Zn          0.966388  
         Zn8       1.0000    0.50000   0.50000   0.50000   Biso      1.000     Zn          1.055465  
         Zn9       1.0000    0.50000   0.50000   0.00000   Biso      1.000     Zn          1.055465  
         Zn10      1.0000    0.00000   0.00000   0.00000   Biso      1.000     Zn          1.055465  
         Zn11      1.0000    0.00000   0.07785   0.25000   Biso      1.000     Zn          1.022099  
         Zn12      1.0000    0.50000   0.42215   0.75000   Biso      1.000     Zn          1.022099 