
##########################################################################
#               Crystallographic Information Format file
#               Produced by PyCifRW module
#
#  This is a CIF file.  CIF has been adopted by the International
#  Union of Crystallography as the standard for data archiving and
#  transmission.
#
#  For information on this file format, follow the CIF links at
#  http://www.iucr.org
##########################################################################

data_image0

_cell_length_a                          15.4839
_cell_length_b                          16.3541
_cell_length_c                          16.3541
_cell_angle_alpha                       69.4761
_cell_angle_beta                        71.6032
_cell_angle_gamma                       108.397
_symmetry_space_group_name_H-M          'P 1'
_symmetry_int_tables_number             1
loop_
  _symmetry_equiv_pos_as_xyz
         'x, y, z' 
loop_
  _atom_site_label
  _atom_site_occupancy
  _atom_site_fract_x
  _atom_site_fract_y
  _atom_site_fract_z
  _atom_site_thermal_displace_type
  _atom_site_B_iso_or_equiv
  _atom_site_type_symbol
  _atom_site_charge
         C1        1.0000    0.53471   0.19675   0.37584   Biso      1.000     C          0.6296390000000001  
         C2        1.0000    0.03869   0.55856   0.53798   Biso      1.000     C          -0.059119000000000005         
         C3        1.0000    0.08945   0.62416   0.57259   Biso      1.000     C          0.629267  
         C4        1.0000    0.10533   0.55146   0.46362   Biso      1.000     C          -0.16561800000000002          
         C5        1.0000    0.93068   0.50590   0.57658   Biso      1.000     C          0.115076  
         C6        1.0000    0.01987   0.55856   0.90346   Biso      1.000     C          -0.060159000000000004         
         C7        1.0000    0.03471   0.62416   0.80325   Biso      1.000     C          0.629675  
         C8        1.0000    0.94613   0.55146   0.98492   Biso      1.000     C          -0.16514700000000002          
         C9        1.0000    0.07522   0.50590   0.91752   Biso      1.000     C          0.11518199999999999           
         C10       1.0000    0.46131   0.53798   0.55856   Biso      1.000     C          -0.059132000000000004         
         C11       1.0000    0.41055   0.57259   0.62416   Biso      1.000     C          0.629347  
         C12       1.0000    0.39467   0.46362   0.55146   Biso      1.000     C          -0.165544           
         C13       1.0000    0.56932   0.57658   0.50590   Biso      1.000     C          0.11508099999999999           
         C14       1.0000    0.42478   0.91752   0.50590   Biso      1.000     C          0.115274  
         C15       1.0000    0.92333   0.90346   0.53798   Biso      1.000     C          -0.058620000000000005         
         C16       1.0000    0.93105   0.98492   0.46362   Biso      1.000     C          -0.164664           
         C17       1.0000    0.99274   0.91752   0.57658   Biso      1.000     C          0.11435   
         C18       1.0000    0.42333   0.46202   0.09654   Biso      1.000     C          -0.058339999999999996         
         C19       1.0000    0.33796   0.42741   0.19675   Biso      1.000     C          0.6275850000000001  
         C20       1.0000    0.43105   0.53638   0.01508   Biso      1.000     C          -0.164576           
         C21       1.0000    0.49274   0.42342   0.08248   Biso      1.000     C          0.114451  
         C22       1.0000    0.51987   0.09654   0.44144   Biso      1.000     C          -0.060074           
         C23       1.0000    0.98013   0.44144   0.09654   Biso      1.000     C          -0.060097000000000005         
         C24       1.0000    0.44613   0.01508   0.44854   Biso      1.000     C          -0.165103           
         C25       1.0000    0.57522   0.08248   0.49410   Biso      1.000     C          0.11523699999999999           
         C26       1.0000    0.96131   0.44144   0.46202   Biso      1.000     C          -0.059078           
         C27       1.0000    0.91055   0.37584   0.42741   Biso      1.000     C          0.629256  
         C28       1.0000    0.83796   0.80325   0.57259   Biso      1.000     C          0.627939  
         C29       1.0000    0.55387   0.98492   0.55146   Biso      1.000     C          -0.165127           
         C30       1.0000    0.46529   0.80325   0.62416   Biso      1.000     C          0.629905  
         C31       1.0000    0.48013   0.90346   0.55856   Biso      1.000     C          -0.060265           
         C32       1.0000    0.00726   0.08248   0.42342   Biso      1.000     C          0.114481  
         C33       1.0000    0.06895   0.01508   0.53638   Biso      1.000     C          -0.16461900000000002          
         C34       1.0000    0.16204   0.19675   0.42741   Biso      1.000     C          0.627607  
         C35       1.0000    0.07667   0.09654   0.46202   Biso      1.000     C          -0.058414           
         C36       1.0000    0.43068   0.42342   0.49410   Biso      1.000     C          0.115297  
         C37       1.0000    0.60533   0.53638   0.44854   Biso      1.000     C          -0.16556600000000002          
         C38       1.0000    0.58945   0.42741   0.37584   Biso      1.000     C          0.6292479999999999  
         C39       1.0000    0.53869   0.46202   0.44144   Biso      1.000     C          -0.058991999999999996         
         C40       1.0000    0.92478   0.49410   0.08248   Biso      1.000     C          0.11525   
         C41       1.0000    0.05387   0.44854   0.01508   Biso      1.000     C          -0.16514500000000001          
         C42       1.0000    0.96529   0.37584   0.19675   Biso      1.000     C          0.62959   
         C43       1.0000    0.89467   0.44854   0.53638   Biso      1.000     C          -0.16564700000000002          
         C44       1.0000    0.06932   0.49410   0.42342   Biso      1.000     C          0.1152    
         C45       1.0000    0.57667   0.53798   0.90346   Biso      1.000     C          -0.058556           
         C46       1.0000    0.66204   0.57259   0.80325   Biso      1.000     C          0.627803  
         C47       1.0000    0.56895   0.46362   0.98492   Biso      1.000     C          -0.164574           
         C48       1.0000    0.50726   0.57658   0.91752   Biso      1.000     C          0.114301  
         H1        1.0000    0.32210   0.43930   0.58690   Biso      1.000     H          0.12709600000000001           
         H2        1.0000    0.59100   0.97380   0.58690   Biso      1.000     H          0.127196  
         H3        1.0000    0.61720   0.43930   0.97380   Biso      1.000     H          0.126496  
         H4        1.0000    0.88280   0.97380   0.43930   Biso      1.000     H          0.126425  
         H5        1.0000    0.38280   0.56070   0.02620   Biso      1.000     H          0.12653499999999998           
         H6        1.0000    0.40900   0.02620   0.41310   Biso      1.000     H          0.127237  
         H7        1.0000    0.82210   0.41310   0.56070   Biso      1.000     H          0.12698199999999998           
         H8        1.0000    0.09100   0.41310   0.02620   Biso      1.000     H          0.127183  
         H9        1.0000    0.67790   0.56070   0.41310   Biso      1.000     H          0.12709600000000001           
         H10       1.0000    0.11720   0.02620   0.56070   Biso      1.000     H          0.126472  
         H11       1.0000    0.90900   0.58690   0.97380   Biso      1.000     H          0.12717799999999999           
         H12       1.0000    0.17790   0.58690   0.43930   Biso      1.000     H          0.127002  
         Mn1       1.0000    0.59221   0.68442   0.65779   Biso      1.000     Mn          0.8319489999999999  
         Mn2       1.0000    0.84284   0.18568   0.40716   Biso      1.000     Mn          0.766724  
         Mn3       1.0000    0.25000   0.65779   0.65779   Biso      1.000     Mn          0.8289549999999999  
         Mn4       1.0000    0.90779   0.65779   0.68442   Biso      1.000     Mn          0.829075  
         Mn5       1.0000    0.75000   0.34221   0.34221   Biso      1.000     Mn          0.829622  
         Mn6       1.0000    0.09221   0.34221   0.31558   Biso      1.000     Mn          0.828327  
         Mn7       1.0000    0.40779   0.31558   0.34221   Biso      1.000     Mn          0.828565  
         Mn8       1.0000    0.34284   0.59284   0.81432   Biso      1.000     Mn          0.767135  
         Mn9       1.0000    0.15716   0.81432   0.59284   Biso      1.000     Mn          0.766967  
         Mn10      1.0000    0.25000   0.40716   0.40716   Biso      1.000     Mn          0.766486  
         Mn11      1.0000    0.65716   0.40716   0.18568   Biso      1.000     Mn          0.766841  
         Mn12      1.0000    0.75000   0.59284   0.59284   Biso      1.000     Mn          0.76678   
         O1        1.0000    0.36084   0.42660   0.26593   Biso      1.000     O          -0.555348           
         O2        1.0000    0.95470   0.61013   0.79522   Biso      1.000     O          -0.494467           
         O3        1.0000    0.43424   0.57340   0.69253   Biso      1.000     O          -0.5563560000000001           
         O4        1.0000    0.34457   0.59465   0.61013   Biso      1.000     O          -0.49419799999999997          
         O5        1.0000    0.86084   0.73407   0.57340   Biso      1.000     O          -0.555268           
         O6        1.0000    0.74992   0.79522   0.59465   Biso      1.000     O          -0.49395600000000006          
         O7        1.0000    0.24992   0.40535   0.20478   Biso      1.000     O          -0.49364600000000003          
         O8        1.0000    0.04530   0.38987   0.20478   Biso      1.000     O          -0.494349           
         O9        1.0000    0.45470   0.20478   0.38987   Biso      1.000     O          -0.494379           
         O10       1.0000    0.93424   0.30747   0.42660   Biso      1.000     O          -0.55596  
         O11       1.0000    0.84457   0.38987   0.40535   Biso      1.000     O          -0.49456700000000003          
         O12       1.0000    0.87323   0.30747   0.26593   Biso      1.000     O          -0.556046           
         O13       1.0000    0.12677   0.69253   0.73407   Biso      1.000     O          -0.556003           
         O14       1.0000    0.56576   0.42660   0.30747   Biso      1.000     O          -0.55599  
         O15       1.0000    0.65543   0.40535   0.38987   Biso      1.000     O          -0.494515           
         O16       1.0000    0.62677   0.26593   0.30747   Biso      1.000     O          -0.5560229999999999           
         O17       1.0000    0.15543   0.61013   0.59465   Biso      1.000     O          -0.494438           
         O18       1.0000    0.63916   0.57340   0.73407   Biso      1.000     O          -0.5556369999999999           
         O19       1.0000    0.54530   0.79522   0.61013   Biso      1.000     O          -0.49472  
         O20       1.0000    0.06576   0.69253   0.57340   Biso      1.000     O          -0.556094           
         O21       1.0000    0.13916   0.26593   0.42660   Biso      1.000     O          -0.555292           
         O22       1.0000    0.25008   0.20478   0.40535   Biso      1.000     O          -0.49373100000000003          
         O23       1.0000    0.37323   0.73407   0.69253   Biso      1.000     O          -0.55589  
         O24       1.0000    0.75008   0.59465   0.79522   Biso      1.000     O          -0.49345500000000003          
         S1        1.0000    0.01428   0.17884   0.32400   Biso      1.000     S          -0.39456199999999997          
         S2        1.0000    0.33828   0.32400   0.49716   Biso      1.000     S          -0.394513           
         S3        1.0000    0.83544   0.49716   0.17885   Biso      1.000     S          -0.394721           
         S4        1.0000    0.16172   0.49716   0.32399   Biso      1.000     S          -0.394588           
         S5        1.0000    0.48571   0.32399   0.17885   Biso      1.000     S          -0.394436           
         S6        1.0000    0.98571   0.82115   0.67601   Biso      1.000     S          -0.394467           
         S7        1.0000    0.66172   0.67601   0.50284   Biso      1.000     S          -0.39413400000000004          
         S8        1.0000    0.16456   0.50284   0.82115   Biso      1.000     S          -0.394552           
         S9        1.0000    0.83828   0.50284   0.67601   Biso      1.000     S          -0.394347           
         S10       1.0000    0.33544   0.82116   0.50284   Biso      1.000     S          -0.394681           
         S11       1.0000    0.51429   0.67601   0.82115   Biso      1.000     S          -0.39412800000000003          
         S12       1.0000    0.66456   0.17885   0.49716   Biso      1.000     S          -0.39473800000000003 