
##########################################################################
#               Crystallographic Information Format file
#               Produced by PyCifRW module
#
#  This is a CIF file.  CIF has been adopted by the International
#  Union of Crystallography as the standard for data archiving and
#  transmission.
#
#  For information on this file format, follow the CIF links at
#  http://www.iucr.org
##########################################################################

data_image0

_cell_length_a                          5.396
_cell_length_b                          18.7159
_cell_length_c                          18.7159
_cell_angle_alpha                       88.8093
_cell_angle_beta                        81.7119
_cell_angle_gamma                       81.7116
_symmetry_space_group_name_H-M          'P 1'
_symmetry_int_tables_number             1
loop_
  _symmetry_equiv_pos_as_xyz
         'x, y, z' 
loop_
  _atom_site_label
  _atom_site_occupancy
  _atom_site_fract_x
  _atom_site_fract_y
  _atom_site_fract_z
  _atom_site_thermal_displace_type
  _atom_site_B_iso_or_equiv
  _atom_site_type_symbol
  _atom_site_charge
         C1        1.0000    0.40641   0.06758   0.86600   Biso      1.000     C          -0.157645           
         C2        1.0000    0.44181   0.92333   0.20045   Biso      1.000     C          0.09388400000000001           
         C3        1.0000    0.74178   0.86545   0.27279   Biso      1.000     C          0.10556900000000001           
         C4        1.0000    0.63176   0.58523   0.16445   Biso      1.000     C          0.557128  
         C5        1.0000    0.65840   0.87321   0.20679   Biso      1.000     C          -0.24073200000000003          
         C6        1.0000    0.11323   0.76328   0.26406   Biso      1.000     C          0.186369  
         C7        1.0000    0.07486   0.32718   0.82890   Biso      1.000     C          -0.063665           
         C8        1.0000    0.33999   0.93242   0.13400   Biso      1.000     C          -0.159315           
         C9        1.0000    0.29586   0.35242   0.80146   Biso      1.000     C          -0.012778           
         C10       1.0000    0.13632   0.16067   0.62949   Biso      1.000     C          0.154674  
         C11       1.0000    0.20563   0.97938   0.81136   Biso      1.000     C          -0.107302           
         C12       1.0000    0.69501   0.04104   0.67234   Biso      1.000     C          -0.220744           
         C13       1.0000    0.99276   0.27050   0.79658   Biso      1.000     C          -0.19173800000000002          
         C14       1.0000    0.37052   0.25878   0.70958   Biso      1.000     C          -0.198521           
         C15       1.0000    0.23262   0.02049   0.87167   Biso      1.000     C          -0.09665499999999999          
         C16       1.0000    0.44706   0.31688   0.74180   Biso      1.000     C          -0.086249           
         C17       1.0000    0.08987   0.01430   0.25356   Biso      1.000     C          -0.146429           
         C18       1.0000    0.61923   0.90928   0.33226   Biso      1.000     C          0.148333  
         C19       1.0000    0.31388   0.96615   0.26109   Biso      1.000     C          0.078685  
         C20       1.0000    0.54112   0.03385   0.73891   Biso      1.000     C          0.081057  
         C21       1.0000    0.56559   0.07667   0.79955   Biso      1.000     C          0.090581  
         C22       1.0000    0.88002   0.13455   0.72721   Biso      1.000     C          0.105814  
         C23       1.0000    0.38144   0.41477   0.83555   Biso      1.000     C          0.556484  
         C24       1.0000    0.73840   0.12679   0.79321   Biso      1.000     C          -0.2381   
         C25       1.0000    0.14057   0.23672   0.73594   Biso      1.000     C          0.185694  
         C26       1.0000    0.12478   0.97951   0.12833   Biso      1.000     C          -0.098061           
         C27       1.0000    0.33888   0.74122   0.29042   Biso      1.000     C          -0.201505           
         C28       1.0000    0.05984   0.72950   0.20342   Biso      1.000     C          -0.191663           
         C29       1.0000    0.40839   0.95896   0.32766   Biso      1.000     C          -0.22255100000000003          
         C30       1.0000    0.99637   0.02062   0.18864   Biso      1.000     C          -0.107537           
         C31       1.0000    0.92648   0.83933   0.37051   Biso      1.000     C          0.15425   
         C32       1.0000    0.50574   0.68312   0.25820   Biso      1.000     C          -0.082901           
         C33       1.0000    0.44974   0.64758   0.19854   Biso      1.000     C          -0.016022           
         C34       1.0000    0.23094   0.67282   0.17110   Biso      1.000     C          -0.062665           
         C35       1.0000    0.62271   0.26406   0.23672   Biso      1.000     C          0.183072  
         C36       1.0000    0.13481   0.20679   0.12679   Biso      1.000     C          -0.23709499999999997          
         C37       1.0000    0.20379   0.16445   0.41477   Biso      1.000     C          0.568639  
         C38       1.0000    0.98543   0.27279   0.13455   Biso      1.000     C          0.10345   
         C39       1.0000    0.63486   0.79955   0.92333   Biso      1.000     C          0.092498  
         C40       1.0000    0.72759   0.86600   0.93242   Biso      1.000     C          -0.15499100000000002          
         C41       1.0000    0.89583   0.74644   0.01430   Biso      1.000     C          -0.156878           
         C42       1.0000    0.47149   0.66774   0.90928   Biso      1.000     C          0.141951  
         C43       1.0000    0.71997   0.73891   0.96615   Biso      1.000     C          0.079779  
         C44       1.0000    0.09624   0.82890   0.67282   Biso      1.000     C          -0.062729           
         C45       1.0000    0.35773   0.98570   0.74644   Biso      1.000     C          -0.146884           
         C46       1.0000    0.90268   0.80146   0.64758   Biso      1.000     C          -0.020605000000000002         
         C47       1.0000    0.23419   0.62949   0.83933   Biso      1.000     C          0.163579  
         C48       1.0000    0.98301   0.81136   0.02062   Biso      1.000     C          -0.10254200000000001          
         C49       1.0000    0.63265   0.67234   0.95896   Biso      1.000     C          -0.225688           
         C50       1.0000    0.21066   0.79658   0.72950   Biso      1.000     C          -0.18679300000000001          
         C51       1.0000    0.91990   0.70958   0.74122   Biso      1.000     C          -0.201702           
         C52       1.0000    0.89571   0.87167   0.97951   Biso      1.000     C          -0.095141           
         C53       1.0000    0.81114   0.74180   0.68312   Biso      1.000     C          -0.081005           
         C54       1.0000    0.78301   0.83555   0.58523   Biso      1.000     C          0.566516  
         C55       1.0000    0.39277   0.72721   0.86545   Biso      1.000     C          0.104611  
         C56       1.0000    0.12349   0.73594   0.76328   Biso      1.000     C          0.183507  
         C57       1.0000    0.35774   0.20045   0.07667   Biso      1.000     C          0.094456  
         C58       1.0000    0.52601   0.13400   0.06758   Biso      1.000     C          -0.155109           
         C59       1.0000    0.65657   0.25356   0.98570   Biso      1.000     C          -0.156172           
         C60       1.0000    0.04851   0.33226   0.09072   Biso      1.000     C          0.142401  
         C61       1.0000    0.42503   0.26109   0.03385   Biso      1.000     C          0.079199  
         C62       1.0000    0.46839   0.79321   0.87321   Biso      1.000     C          -0.236938           
         C63       1.0000    0.35172   0.19854   0.35242   Biso      1.000     C          -0.020804           
         C64       1.0000    0.59796   0.17110   0.32718   Biso      1.000     C          -0.064047           
         C65       1.0000    0.70301   0.37051   0.16067   Biso      1.000     C          0.16403399999999999           
         C66       1.0000    0.81499   0.18864   0.97938   Biso      1.000     C          -0.100177           
         C67       1.0000    0.26395   0.32766   0.04104   Biso      1.000     C          -0.22440500000000002          
         C68       1.0000    0.73674   0.20342   0.27050   Biso      1.000     C          -0.185411           
         C69       1.0000    0.37070   0.29042   0.25878   Biso      1.000     C          -0.197916           
         C70       1.0000    0.74689   0.12833   0.02049   Biso      1.000     C          -0.09454  
         C71       1.0000    0.23606   0.25820   0.31688   Biso      1.000     C          -0.082972           
         C72       1.0000    0.86077   0.09072   0.66774   Biso      1.000     C          0.14368499999999998           
         H1        1.0000    0.72826   0.42546   0.96669   Biso      1.000     H          0.335887  
         H2        1.0000    0.64147   0.08334   0.48417   Biso      1.000     H          0.339568  
         H3        1.0000    0.17274   0.57454   0.03331   Biso      1.000     H          0.345552  
         H4        1.0000    0.95440   0.91650   0.98470   Biso      1.000     H          0.102486  
         H5        1.0000    0.68440   0.01230   0.63190   Biso      1.000     H          0.14145   
         H6        1.0000    0.08260   0.94740   0.81560   Biso      1.000     H          0.100526  
         H7        1.0000    0.25780   0.18340   0.59880   Biso      1.000     H          0.116846  
         H8        1.0000    0.60340   0.33250   0.72310   Biso      1.000     H          0.116347  
         H9        1.0000    0.97580   0.34900   0.87100   Biso      1.000     H          0.10806700000000001           
         H10       1.0000    0.33990   0.95760   0.70620   Biso      1.000     H          0.12571300000000002           
         H11       1.0000    0.42150   0.09470   0.90710   Biso      1.000     H          0.115603  
         H12       1.0000    0.75650   0.15460   0.83360   Biso      1.000     H          0.126634  
         H13       1.0000    0.06090   0.98470   0.08350   Biso      1.000     H          0.099349  
         H14       1.0000    0.23047   0.92591   0.52507   Biso      1.000     H          0.39677199999999996           
         H15       1.0000    0.90720   0.74520   0.18440   Biso      1.000     H          0.10946099999999999           
         H16       1.0000    0.32860   0.98770   0.36810   Biso      1.000     H          0.143535  
         H17       1.0000    0.84560   0.05260   0.18440   Biso      1.000     H          0.101137  
         H18       1.0000    0.04000   0.81660   0.40120   Biso      1.000     H          0.11991199999999999           
         H19       1.0000    0.65900   0.66750   0.27690   Biso      1.000     H          0.11629   
         H20       1.0000    0.19580   0.65100   0.12900   Biso      1.000     H          0.106618  
         H21       1.0000    0.00370   0.04240   0.29380   Biso      1.000     H          0.126776  
         H22       1.0000    0.42330   0.90530   0.09290   Biso      1.000     H          0.115541  
         H23       1.0000    0.74470   0.84540   0.16640   Biso      1.000     H          0.126673  
         H24       1.0000    0.83680   0.25480   0.81560   Biso      1.000     H          0.109375  
         H25       1.0000    0.47570   0.23450   0.66970   Biso      1.000     H          0.120198  
         H26       1.0000    0.37990   0.76550   0.33030   Biso      1.000     H          0.12151600000000001           
         H27       1.0000    0.08890   0.16640   0.15460   Biso      1.000     H          0.126593  
         H28       1.0000    0.12910   0.01530   0.91650   Biso      1.000     H          0.099337  
         H29       1.0000    0.85460   0.66970   0.76550   Biso      1.000     H          0.124293  
         H30       1.0000    0.34760   0.81560   0.74520   Biso      1.000     H          0.10859300000000001           
         H31       1.0000    0.68370   0.63190   0.98770   Biso      1.000     H          0.14344   
         H32       1.0000    0.10180   0.81560   0.05260   Biso      1.000     H          0.103788  
         H33       1.0000    0.14340   0.59880   0.81660   Biso      1.000     H          0.122904  
         H34       1.0000    0.67350   0.72310   0.66750   Biso      1.000     H          0.11676199999999999           
         H35       1.0000    0.15320   0.87100   0.65100   Biso      1.000     H          0.114284  
         H36       1.0000    0.95390   0.70620   0.04240   Biso      1.000     H          0.11790999999999999           
         H37       1.0000    0.40990   0.83360   0.84540   Biso      1.000     H          0.127199  
         H38       1.0000    0.67140   0.90710   0.90530   Biso      1.000     H          0.11743800000000001           
         H39       1.0000    0.28980   0.33030   0.23450   Biso      1.000     H          0.12315599999999999           
         H40       1.0000    0.90840   0.18440   0.25480   Biso      1.000     H          0.10929900000000001           
         H41       1.0000    0.30330   0.36810   0.01230   Biso      1.000     H          0.142593  
         H42       1.0000    0.97000   0.18440   0.94740   Biso      1.000     H          0.101872  
         H43       1.0000    0.55880   0.40120   0.18340   Biso      1.000     H          0.123644  
         H44       1.0000    0.06410   0.27690   0.33250   Biso      1.000     H          0.116603  
         H45       1.0000    0.67520   0.12900   0.34900   Biso      1.000     H          0.1158    
         H46       1.0000    0.70250   0.29380   0.95760   Biso      1.000     H          0.11759100000000001           
         H47       1.0000    0.48380   0.09290   0.09470   Biso      1.000     H          0.117024  
         H48       1.0000    0.85560   0.08350   0.01530   Biso      1.000     H          0.101122  
         N1        1.0000    0.76099   0.29957   0.17925   Biso      1.000     N          -0.049483           
         N2        1.0000    0.23981   0.70043   0.82075   Biso      1.000     N          -0.051509000000000006         
         N3        1.0000    0.36552   0.60801   0.89115   Biso      1.000     N          -0.32501199999999997          
         N4        1.0000    0.86468   0.39199   0.10885   Biso      1.000     N          -0.329987           
         N5        1.0000    0.74333   0.89115   0.39199   Biso      1.000     N          -0.332162           
         N6        1.0000    0.02647   0.10885   0.60801   Biso      1.000     N          -0.33527399999999996          
         N7        1.0000    0.93944   0.82075   0.29957   Biso      1.000     N          -0.050865           
         N8        1.0000    0.05976   0.17925   0.70043   Biso      1.000     N          -0.049716           
         O1        1.0000    0.61005   0.80793   0.56457   Biso      1.000     O          -0.562429           
         O2        1.0000    0.86379   0.89228   0.55894   Biso      1.000     O          -0.579544           
         O3        1.0000    0.72826   0.47890   0.96558   Biso      1.000     O          -0.788654           
         O4        1.0000    0.98255   0.19207   0.43543   Biso      1.000     O          -0.556752           
         O5        1.0000    0.31501   0.10772   0.44106   Biso      1.000     O          -0.576742           
         O6        1.0000    0.17274   0.52110   0.03442   Biso      1.000     O          -0.810355           
         O7        1.0000    0.24393   0.44106   0.89228   Biso      1.000     O          -0.569403           
         O8        1.0000    0.79284   0.03442   0.47890   Biso      1.000     O          -0.8295790000000001           
         O9        1.0000    0.82538   0.56457   0.19207   Biso      1.000     O          -0.56105  
         O10       1.0000    0.57727   0.55894   0.10772   Biso      1.000     O          -0.5771430000000001           
         O11       1.0000    0.30616   0.96558   0.52110   Biso      1.000     O          -0.882066           
         O12       1.0000    0.58202   0.43543   0.80793   Biso      1.000     O          -0.563509           
         Zn1       1.0000    0.39643   0.51135   0.94231   Biso      1.000     Zn          0.8670200000000001  
         Zn2       1.0000    0.85009   0.48865   0.05769   Biso      1.000     Zn          0.9005340000000001  
         Zn3       1.0000    0.09222   0.05769   0.51135   Biso      1.000     Zn          0.908093  
         Zn4       1.0000    0.66126   0.94231   0.48865   Biso      1.000     Zn          0.9099309999999999 