
##########################################################################
#               Crystallographic Information Format file
#               Produced by PyCifRW module
#
#  This is a CIF file.  CIF has been adopted by the International
#  Union of Crystallography as the standard for data archiving and
#  transmission.
#
#  For information on this file format, follow the CIF links at
#  http://www.iucr.org
##########################################################################

data_image0

_cell_length_a                          14.829
_cell_length_b                          16.1465
_cell_length_c                          19.282
_cell_angle_alpha                       90
_cell_angle_beta                        91.27
_cell_angle_gamma                       90
_symmetry_space_group_name_H-M          'P 1'
_symmetry_int_tables_number             1
loop_
  _symmetry_equiv_pos_as_xyz
         'x, y, z' 
loop_
  _atom_site_label
  _atom_site_occupancy
  _atom_site_fract_x
  _atom_site_fract_y
  _atom_site_fract_z
  _atom_site_thermal_displace_type
  _atom_site_B_iso_or_equiv
  _atom_site_type_symbol
  _atom_site_charge
         C1        1.0000    0.13650   0.52090   0.98840   Biso      1.000     C          0.299711  
         C2        1.0000    0.09060   0.15700   0.66830   Biso      1.000     C          0.305791  
         C3        1.0000    0.31040   0.02390   0.71000   Biso      1.000     C          0.326277  
         C4        1.0000    0.20110   0.97210   0.22110   Biso      1.000     C          0.324927  
         C5        1.0000    0.57730   0.17500   0.84050   Biso      1.000     C          0.315863  
         C6        1.0000    0.35970   0.02820   0.99100   Biso      1.000     C          0.30445   
         C7        1.0000    0.23730   0.77370   0.90930   Biso      1.000     C          0.32227100000000003           
         C8        1.0000    0.76250   0.75470   0.58500   Biso      1.000     C          0.329627  
         C9        1.0000    0.86350   0.47910   0.01160   Biso      1.000     C          0.299711  
         C10       1.0000    0.90940   0.65700   0.83170   Biso      1.000     C          0.305791  
         C11       1.0000    0.68960   0.52390   0.79000   Biso      1.000     C          0.326277  
         C12       1.0000    0.79890   0.47210   0.27890   Biso      1.000     C          0.324927  
         C13       1.0000    0.42270   0.67500   0.65950   Biso      1.000     C          0.315863  
         C14       1.0000    0.64030   0.52820   0.50900   Biso      1.000     C          0.30445   
         C15       1.0000    0.76270   0.27370   0.59070   Biso      1.000     C          0.32227100000000003           
         C16       1.0000    0.23730   0.72630   0.40930   Biso      1.000     C          0.32227100000000003           
         C17       1.0000    0.35970   0.47180   0.49100   Biso      1.000     C          0.30445   
         C18       1.0000    0.57730   0.32500   0.34050   Biso      1.000     C          0.315863  
         C19       1.0000    0.20110   0.52790   0.72110   Biso      1.000     C          0.324927  
         C20       1.0000    0.31040   0.47610   0.21000   Biso      1.000     C          0.326277  
         C21       1.0000    0.09060   0.34300   0.16830   Biso      1.000     C          0.305791  
         C22       1.0000    0.23750   0.24530   0.41500   Biso      1.000     C          0.329627  
         C23       1.0000    0.76270   0.22630   0.09070   Biso      1.000     C          0.32227100000000003           
         C24       1.0000    0.64030   0.97180   0.00900   Biso      1.000     C          0.30445   
         C25       1.0000    0.42270   0.82500   0.15950   Biso      1.000     C          0.315863  
         C26       1.0000    0.79890   0.02790   0.77890   Biso      1.000     C          0.324927  
         C27       1.0000    0.68960   0.97610   0.29000   Biso      1.000     C          0.326277  
         C28       1.0000    0.90940   0.84300   0.33170   Biso      1.000     C          0.305791  
         C29       1.0000    0.86350   0.02090   0.51160   Biso      1.000     C          0.299711  
         C30       1.0000    0.76250   0.74530   0.08500   Biso      1.000     C          0.329627  
         C31       1.0000    0.13650   0.97910   0.48840   Biso      1.000     C          0.299711  
         C32       1.0000    0.23750   0.25470   0.91500   Biso      1.000     C          0.329627  
         Cd1       1.0000    0.77057   0.37456   0.43507   Biso      1.000     Cd          1.060785  
         Cd2       1.0000    0.72907   0.63149   0.93937   Biso      1.000     Cd          1.069128  
         Cd3       1.0000    0.22943   0.87456   0.06493   Biso      1.000     Cd          1.060785  
         Cd4       1.0000    0.27093   0.13149   0.56063   Biso      1.000     Cd          1.069128  
         Cd5       1.0000    0.22943   0.62544   0.56493   Biso      1.000     Cd          1.060785  
         Cd6       1.0000    0.27093   0.36851   0.06063   Biso      1.000     Cd          1.069129  
         Cd7       1.0000    0.77057   0.12544   0.93507   Biso      1.000     Cd          1.060785  
         Cd8       1.0000    0.72907   0.86851   0.43937   Biso      1.000     Cd          1.069128  
         Hg1       1.0000    0.87973   0.12121   0.65394   Biso      1.000     Hg          0.34746900000000003           
         Hg2       1.0000    0.63073   0.87772   0.15365   Biso      1.000     Hg          0.35336   
         Hg3       1.0000    0.87973   0.37879   0.15394   Biso      1.000     Hg          0.34746900000000003           
         Hg4       1.0000    0.36927   0.12228   0.84635   Biso      1.000     Hg          0.35336   
         Hg5       1.0000    0.12027   0.87879   0.34606   Biso      1.000     Hg          0.34746900000000003           
         Hg6       1.0000    0.36927   0.37772   0.34635   Biso      1.000     Hg          0.35336   
         Hg7       1.0000    0.12027   0.62121   0.84606   Biso      1.000     Hg          0.34746900000000003           
         Hg8       1.0000    0.63073   0.62228   0.65365   Biso      1.000     Hg          0.35336   
         N1        1.0000    0.14610   0.16190   0.62740   Biso      1.000     N          -0.466287           
         N2        1.0000    0.30980   0.04960   0.65470   Biso      1.000     N          -0.48180200000000006          
         N3        1.0000    0.20660   0.94810   0.16560   Biso      1.000     N          -0.47537299999999993          
         N4        1.0000    0.63250   0.16490   0.88140   Biso      1.000     N          -0.46623100000000006          
         N5        1.0000    0.31170   0.98030   0.01270   Biso      1.000     N          -0.464958           
         N6        1.0000    0.81830   0.53270   0.99290   Biso      1.000     N          -0.45903900000000003          
         N7        1.0000    0.76130   0.78010   0.53070   Biso      1.000     N          -0.47512600000000005          
         N8        1.0000    0.85390   0.66190   0.87260   Biso      1.000     N          -0.466287           
         N9        1.0000    0.69020   0.54960   0.84530   Biso      1.000     N          -0.48180200000000006          
         N10       1.0000    0.79340   0.44810   0.33440   Biso      1.000     N          -0.47537299999999993          
         N11       1.0000    0.18170   0.03270   0.50710   Biso      1.000     N          -0.45903900000000003          
         N12       1.0000    0.36750   0.66490   0.61860   Biso      1.000     N          -0.46623100000000006          
         N13       1.0000    0.24580   0.79500   0.96530   Biso      1.000     N          -0.47309799999999996          
         N14       1.0000    0.23870   0.28010   0.96930   Biso      1.000     N          -0.47512600000000005          
         N15       1.0000    0.18170   0.46730   0.00710   Biso      1.000     N          -0.45903900000000003          
         N16       1.0000    0.31170   0.51970   0.51270   Biso      1.000     N          -0.464958           
         N17       1.0000    0.63250   0.33510   0.38140   Biso      1.000     N          -0.46623100000000006          
         N18       1.0000    0.20660   0.55190   0.66560   Biso      1.000     N          -0.47537299999999993          
         N19       1.0000    0.30980   0.45040   0.15470   Biso      1.000     N          -0.48180200000000006          
         N20       1.0000    0.14610   0.33810   0.12740   Biso      1.000     N          -0.466286           
         N21       1.0000    0.23870   0.21990   0.46930   Biso      1.000     N          -0.47512600000000005          
         N22       1.0000    0.75420   0.20500   0.03470   Biso      1.000     N          -0.47309799999999996          
         N23       1.0000    0.68830   0.01970   0.98730   Biso      1.000     N          -0.464958           
         N24       1.0000    0.36750   0.83510   0.11860   Biso      1.000     N          -0.46623100000000006          
         N25       1.0000    0.79340   0.05190   0.83440   Biso      1.000     N          -0.47537299999999993          
         N26       1.0000    0.69020   0.95040   0.34530   Biso      1.000     N          -0.48180200000000006          
         N27       1.0000    0.85390   0.83810   0.37260   Biso      1.000     N          -0.466286           
         N28       1.0000    0.68830   0.48030   0.48730   Biso      1.000     N          -0.464958           
         N29       1.0000    0.24580   0.70500   0.46530   Biso      1.000     N          -0.47309799999999996          
         N30       1.0000    0.75420   0.29500   0.53470   Biso      1.000     N          -0.47309799999999996          
         N31       1.0000    0.76130   0.71990   0.03070   Biso      1.000     N          -0.47512600000000005          
         N32       1.0000    0.81830   0.96730   0.49290   Biso      1.000     N          -0.45903900000000003          
         S1        1.0000    0.77070   0.26060   0.17050   Biso      1.000     S          -0.192796           
         S2        1.0000    0.76450   0.71750   0.66380   Biso      1.000     S          -0.194415           
         S3        1.0000    0.68510   0.48770   0.71045   Biso      1.000     S          -0.201022           
         S4        1.0000    0.50060   0.68560   0.71987   Biso      1.000     S          -0.232104           
         S5        1.0000    0.56630   0.59350   0.53592   Biso      1.000     S          -0.18086  
         S6        1.0000    0.93270   0.40310   0.03357   Biso      1.000     S          -0.177233           
         S7        1.0000    0.98270   0.64970   0.76905   Biso      1.000     S          -0.22306399999999998          
         S8        1.0000    0.80430   0.50990   0.20020   Biso      1.000     S          -0.19625399999999998          
         S9        1.0000    0.23550   0.21750   0.83620   Biso      1.000     S          -0.194415           
         S10       1.0000    0.31490   0.98770   0.78955   Biso      1.000     S          -0.201022           
         S11       1.0000    0.49940   0.18560   0.78013   Biso      1.000     S          -0.232104           
         S12       1.0000    0.43370   0.09350   0.96408   Biso      1.000     S          -0.18086  
         S13       1.0000    0.06730   0.90310   0.46643   Biso      1.000     S          -0.177233           
         S14       1.0000    0.01730   0.14970   0.73095   Biso      1.000     S          -0.22306399999999998          
         S15       1.0000    0.80430   0.99010   0.70020   Biso      1.000     S          -0.19625399999999998          
         S16       1.0000    0.19570   0.00990   0.29980   Biso      1.000     S          -0.19625399999999998          
         S17       1.0000    0.23550   0.28250   0.33620   Biso      1.000     S          -0.194415           
         S18       1.0000    0.31490   0.51230   0.28955   Biso      1.000     S          -0.201022           
         S19       1.0000    0.49940   0.31440   0.28013   Biso      1.000     S          -0.232104           
         S20       1.0000    0.43370   0.40650   0.46408   Biso      1.000     S          -0.18086  
         S21       1.0000    0.06730   0.59690   0.96643   Biso      1.000     S          -0.177233           
         S22       1.0000    0.01730   0.35030   0.23095   Biso      1.000     S          -0.22306399999999998          
         S23       1.0000    0.19570   0.49010   0.79980   Biso      1.000     S          -0.19625399999999998          
         S24       1.0000    0.22930   0.76060   0.32950   Biso      1.000     S          -0.192796           
         S25       1.0000    0.76450   0.78250   0.16380   Biso      1.000     S          -0.194415           
         S26       1.0000    0.68510   0.01230   0.21045   Biso      1.000     S          -0.201022           
         S27       1.0000    0.50060   0.81440   0.21987   Biso      1.000     S          -0.232104           
         S28       1.0000    0.56630   0.90650   0.03592   Biso      1.000     S          -0.18086  
         S29       1.0000    0.93270   0.09690   0.53357   Biso      1.000     S          -0.177233           
         S30       1.0000    0.98270   0.85030   0.26905   Biso      1.000     S          -0.22306399999999998          
         S31       1.0000    0.22930   0.73940   0.82950   Biso      1.000     S          -0.192796           
         S32       1.0000    0.77070   0.23940   0.67050   Biso      1.000     S          -0.192796 