
##########################################################################
#               Crystallographic Information Format file
#               Produced by PyCifRW module
#
#  This is a CIF file.  CIF has been adopted by the International
#  Union of Crystallography as the standard for data archiving and
#  transmission.
#
#  For information on this file format, follow the CIF links at
#  http://www.iucr.org
##########################################################################

data_image0

_cell_length_a                          9.1034
_cell_length_b                          9.1034
_cell_length_c                          25.4708
_cell_angle_alpha                       90
_cell_angle_beta                        90
_cell_angle_gamma                       120
_symmetry_space_group_name_H-M          'P 1'
_symmetry_int_tables_number             1
loop_
  _symmetry_equiv_pos_as_xyz
         'x, y, z' 
loop_
  _atom_site_label
  _atom_site_occupancy
  _atom_site_fract_x
  _atom_site_fract_y
  _atom_site_fract_z
  _atom_site_thermal_displace_type
  _atom_site_B_iso_or_equiv
  _atom_site_type_symbol
  _atom_site_charge
         C1        1.0000    0.75370   0.84480   0.25717   Biso      1.000     C          0.5092479999999999  
         C2        1.0000    0.09110   0.24630   0.59050   Biso      1.000     C          0.509336  
         C3        1.0000    0.93050   0.23240   0.56660   Biso      1.000     C          0.517005  
         C4        1.0000    0.06890   0.76450   0.56620   Biso      1.000     C          0.520284  
         C5        1.0000    0.91340   0.75900   0.59160   Biso      1.000     C          0.5148739999999999  
         C6        1.0000    0.24630   0.09110   0.07617   Biso      1.000     C          0.509444  
         C7        1.0000    0.23240   0.93050   0.10007   Biso      1.000     C          0.516971  
         C8        1.0000    0.76450   0.06890   0.10047   Biso      1.000     C          0.520361  
         C9        1.0000    0.75900   0.91340   0.07507   Biso      1.000     C          0.514971  
         C10       1.0000    0.90890   0.15520   0.74283   Biso      1.000     C          0.509254  
         C11       1.0000    0.06950   0.30190   0.76673   Biso      1.000     C          0.517051  
         C12       1.0000    0.93110   0.69560   0.76713   Biso      1.000     C          0.520345  
         C13       1.0000    0.08660   0.84560   0.74173   Biso      1.000     C          0.51469   
         C14       1.0000    0.84480   0.75370   0.40950   Biso      1.000     C          0.5093340000000001  
         C15       1.0000    0.69810   0.76760   0.43340   Biso      1.000     C          0.517005  
         C16       1.0000    0.30440   0.23550   0.43380   Biso      1.000     C          0.520277  
         C17       1.0000    0.15440   0.24100   0.40840   Biso      1.000     C          0.514867  
         C18       1.0000    0.76760   0.69810   0.23327   Biso      1.000     C          0.517046  
         C19       1.0000    0.84560   0.08660   0.92493   Biso      1.000     C          0.514975  
         C20       1.0000    0.69560   0.93110   0.89953   Biso      1.000     C          0.520371  
         C21       1.0000    0.30190   0.06950   0.89993   Biso      1.000     C          0.5169630000000001  
         C22       1.0000    0.15520   0.90890   0.92383   Biso      1.000     C          0.509437  
         C23       1.0000    0.24100   0.15440   0.25827   Biso      1.000     C          0.5146890000000001  
         C24       1.0000    0.23550   0.30440   0.23287   Biso      1.000     C          0.5203439999999999  
         Ce1       1.0000    0.50013   0.50013   0.33333   Biso      1.000     Ce          2.028655  
         Ce2       1.0000    0.49987   0.00000   0.00000   Biso      1.000     Ce          2.0287490000000004  
         Ce3       1.0000    0.00000   0.49987   0.66667   Biso      1.000     Ce          2.028641  
         O1        1.0000    0.33370   0.14650   0.03517   Biso      1.000     O          -0.520904           
         O2        1.0000    0.85200   0.66370   0.63030   Biso      1.000     O          -0.517159           
         O3        1.0000    0.13100   0.68300   0.58450   Biso      1.000     O          -0.511189           
         O4        1.0000    0.85410   0.83970   0.56810   Biso      1.000     O          -0.52684  
         O5        1.0000    0.12540   0.86110   0.52690   Biso      1.000     O          -0.500001           
         O6        1.0000    0.87550   0.13930   0.52600   Biso      1.000     O          -0.5018520000000001           
         O7        1.0000    0.14930   0.16280   0.56770   Biso      1.000     O          -0.529744           
         O8        1.0000    0.87020   0.31640   0.58520   Biso      1.000     O          -0.514733           
         O9        1.0000    0.14650   0.33370   0.63150   Biso      1.000     O          -0.520874           
         O10       1.0000    0.33630   0.18830   0.29697   Biso      1.000     O          -0.5170899999999999           
         O11       1.0000    0.31700   0.44800   0.25117   Biso      1.000     O          -0.511247           
         O12       1.0000    0.13890   0.26430   0.19357   Biso      1.000     O          -0.49999399999999994          
         O13       1.0000    0.73570   0.87460   0.86023   Biso      1.000     O          -0.500034           
         O14       1.0000    0.86070   0.73620   0.19267   Biso      1.000     O          -0.501842           
         O15       1.0000    0.83720   0.98650   0.23437   Biso      1.000     O          -0.529714           
         O16       1.0000    0.68360   0.55380   0.25187   Biso      1.000     O          -0.514757           
         O17       1.0000    0.66630   0.81280   0.29817   Biso      1.000     O          -0.520886           
         O18       1.0000    0.81170   0.14800   0.96363   Biso      1.000     O          -0.517183           
         O19       1.0000    0.55200   0.86900   0.91783   Biso      1.000     O          -0.511337           
         O20       1.0000    0.98560   0.14590   0.90143   Biso      1.000     O          -0.5269020000000001           
         O21       1.0000    0.01350   0.85070   0.90103   Biso      1.000     O          -0.529799           
         O22       1.0000    0.26380   0.12450   0.85933   Biso      1.000     O          -0.5019520000000001           
         O23       1.0000    0.16030   0.01440   0.23477   Biso      1.000     O          -0.52676  
         O24       1.0000    0.31640   0.87020   0.08147   Biso      1.000     O          -0.514648           
         O25       1.0000    0.14800   0.81170   0.70303   Biso      1.000     O          -0.5170939999999999           
         O26       1.0000    0.13930   0.87550   0.14067   Biso      1.000     O          -0.501955           
         O27       1.0000    0.18830   0.33630   0.36970   Biso      1.000     O          -0.517166           
         O28       1.0000    0.44800   0.31700   0.41550   Biso      1.000     O          -0.511193           
         O29       1.0000    0.01440   0.16030   0.43190   Biso      1.000     O          -0.52684  
         O30       1.0000    0.26430   0.13890   0.47310   Biso      1.000     O          -0.500003           
         O31       1.0000    0.73620   0.86070   0.47400   Biso      1.000     O          -0.501853           
         O32       1.0000    0.98650   0.83720   0.43230   Biso      1.000     O          -0.529744           
         O33       1.0000    0.55380   0.68360   0.41480   Biso      1.000     O          -0.514734           
         O34       1.0000    0.81280   0.66630   0.36850   Biso      1.000     O          -0.520875           
         O35       1.0000    0.16280   0.14930   0.09897   Biso      1.000     O          -0.529799           
         O36       1.0000    0.86900   0.55200   0.74883   Biso      1.000     O          -0.511249           
         O37       1.0000    0.44620   0.12980   0.91853   Biso      1.000     O          -0.514652           
         O38       1.0000    0.87460   0.73570   0.80643   Biso      1.000     O          -0.49999499999999997          
         O39       1.0000    0.12450   0.26380   0.80733   Biso      1.000     O          -0.501843           
         O40       1.0000    0.85070   0.01350   0.76563   Biso      1.000     O          -0.529717           
         O41       1.0000    0.12980   0.44620   0.74813   Biso      1.000     O          -0.514757           
         O42       1.0000    0.85350   0.18720   0.70183   Biso      1.000     O          -0.520885           
         O43       1.0000    0.66370   0.85200   0.03637   Biso      1.000     O          -0.517187           
         O44       1.0000    0.68300   0.13100   0.08217   Biso      1.000     O          -0.511335           
         O45       1.0000    0.83970   0.85410   0.09857   Biso      1.000     O          -0.526899           
         O46       1.0000    0.86110   0.12540   0.13977   Biso      1.000     O          -0.500035           
         O47       1.0000    0.14590   0.98560   0.76523   Biso      1.000     O          -0.5267609999999999           
         O48       1.0000    0.18720   0.85350   0.96483   Biso      1.000     O          -0.5209060000000001           
         Zr1       1.0000    0.00000   0.99994   0.16667   Biso      1.000     Zr          2.093236  
         Zr2       1.0000    0.00006   0.00006   0.83333   Biso      1.000     Zr          2.093233  
         Zr3       1.0000    0.99994   0.00000   0.50000   Biso      1.000     Zr          2.0932630000000003 