
##########################################################################
#               Crystallographic Information Format file
#               Produced by PyCifRW module
#
#  This is a CIF file.  CIF has been adopted by the International
#  Union of Crystallography as the standard for data archiving and
#  transmission.
#
#  For information on this file format, follow the CIF links at
#  http://www.iucr.org
##########################################################################

data_image0

_cell_length_a                          12.9653
_cell_length_b                          13.906
_cell_length_c                          14.62
_cell_angle_alpha                       95.9483
_cell_angle_beta                        90
_cell_angle_gamma                       117.786
_symmetry_space_group_name_H-M          'P 1'
_symmetry_int_tables_number             1
loop_
  _symmetry_equiv_pos_as_xyz
         'x, y, z' 
loop_
  _atom_site_label
  _atom_site_occupancy
  _atom_site_fract_x
  _atom_site_fract_y
  _atom_site_fract_z
  _atom_site_thermal_displace_type
  _atom_site_B_iso_or_equiv
  _atom_site_type_symbol
  _atom_site_charge
         C1        1.0000    0.68420   0.50660   0.57110   Biso      1.000     C          0.640486  
         C2        1.0000    0.30240   0.30340   0.76470   Biso      1.000     C          -0.133379           
         C3        1.0000    0.33080   0.40760   0.74530   Biso      1.000     C          -0.010656           
         C4        1.0000    0.29390   0.47140   0.80000   Biso      1.000     C          -0.083924           
         C5        1.0000    0.21910   0.42600   0.87090   Biso      1.000     C          -0.004947999999999999         
         C6        1.0000    0.18670   0.31800   0.88700   Biso      1.000     C          -0.163942           
         C7        1.0000    0.21030   0.14780   0.86090   Biso      1.000     C          -0.029725           
         C8        1.0000    0.29330   0.11480   0.86080   Biso      1.000     C          0.283762  
         C9        1.0000    0.27650   0.01880   0.89110   Biso      1.000     C          -0.24393  
         C10       1.0000    0.10120   0.07480   0.88710   Biso      1.000     C          -0.123724           
         C11       1.0000    0.40460   0.45160   0.66450   Biso      1.000     C          0.65366   
         C12       1.0000    0.15190   0.84680   0.96070   Biso      1.000     C          0.590338  
         C13       1.0000    0.17130   0.94920   0.92110   Biso      1.000     C          0.031528  
         C14       1.0000    0.08180   0.97460   0.91760   Biso      1.000     C          -0.11823900000000001          
         C15       1.0000    0.17760   0.49340   0.92890   Biso      1.000     C          0.6405310000000001  
         C16       1.0000    0.97610   0.74320   0.66320   Biso      1.000     C          0.106003  
         C17       1.0000    0.99900   0.69660   0.73530   Biso      1.000     C          -0.13332  
         C18       1.0000    0.92320   0.59240   0.75470   Biso      1.000     C          -0.010209000000000001         
         C19       1.0000    0.82250   0.52860   0.70000   Biso      1.000     C          -0.082541           
         C20       1.0000    0.79310   0.57400   0.62910   Biso      1.000     C          -0.0055780000000000005        
         C21       1.0000    0.86870   0.68200   0.61300   Biso      1.000     C          -0.164163           
         C22       1.0000    0.06250   0.85220   0.63910   Biso      1.000     C          -0.029287           
         C23       1.0000    0.17850   0.88520   0.63920   Biso      1.000     C          0.28339699999999995           
         C24       1.0000    0.25770   0.98120   0.60890   Biso      1.000     C          -0.24095300000000003          
         C25       1.0000    0.02640   0.92520   0.61290   Biso      1.000     C          -0.12473900000000002          
         C26       1.0000    0.95300   0.54840   0.83550   Biso      1.000     C          0.653337  
         C27       1.0000    0.30510   0.15320   0.53930   Biso      1.000     C          0.592568  
         C28       1.0000    0.22210   0.05080   0.57890   Biso      1.000     C          0.027927999999999998          
         C29       1.0000    0.23290   0.25680   0.83680   Biso      1.000     C          0.105779  
         C30       1.0000    0.69760   0.69660   0.23530   Biso      1.000     C          -0.133376           
         C31       1.0000    0.66920   0.59240   0.25470   Biso      1.000     C          -0.010657999999999999         
         C32       1.0000    0.70610   0.52860   0.20000   Biso      1.000     C          -0.08392000000000001          
         C33       1.0000    0.31580   0.49340   0.42890   Biso      1.000     C          0.6404810000000001  
         C34       1.0000    0.89280   0.97460   0.41760   Biso      1.000     C          -0.11615999999999999          
         C35       1.0000    0.77790   0.94920   0.42110   Biso      1.000     C          0.02793   
         C36       1.0000    0.69490   0.84680   0.46070   Biso      1.000     C          0.592567  
         C37       1.0000    0.04700   0.45160   0.16450   Biso      1.000     C          0.653337  
         C38       1.0000    0.97360   0.07480   0.38710   Biso      1.000     C          -0.124741           
         C39       1.0000    0.74230   0.01880   0.39110   Biso      1.000     C          -0.240945           
         C40       1.0000    0.82150   0.11480   0.36080   Biso      1.000     C          0.28339000000000003           
         C41       1.0000    0.93750   0.14780   0.36090   Biso      1.000     C          -0.029272000000000003         
         C42       1.0000    0.13130   0.31800   0.38700   Biso      1.000     C          -0.164162           
         C43       1.0000    0.20690   0.42600   0.37090   Biso      1.000     C          -0.005577           
         C44       1.0000    0.10720   0.02540   0.58240   Biso      1.000     C          -0.116154           
         C45       1.0000    0.07680   0.40760   0.24530   Biso      1.000     C          -0.010215           
         C46       1.0000    0.17750   0.47140   0.30000   Biso      1.000     C          -0.082539           
         C47       1.0000    0.02390   0.25680   0.33680   Biso      1.000     C          0.106     
         C48       1.0000    0.82240   0.50660   0.07110   Biso      1.000     C          0.640533  
         C49       1.0000    0.91820   0.02540   0.08240   Biso      1.000     C          -0.118243           
         C50       1.0000    0.82870   0.05080   0.07890   Biso      1.000     C          0.031526  
         C51       1.0000    0.84810   0.15320   0.03930   Biso      1.000     C          0.590338  
         C52       1.0000    0.59540   0.54840   0.33550   Biso      1.000     C          0.65366   
         C53       1.0000    0.89880   0.92520   0.11290   Biso      1.000     C          -0.123726           
         C54       1.0000    0.72350   0.98120   0.10890   Biso      1.000     C          -0.243921           
         C55       1.0000    0.70670   0.88520   0.13920   Biso      1.000     C          0.283756  
         C56       1.0000    0.78970   0.85220   0.13910   Biso      1.000     C          -0.029713999999999997         
         C57       1.0000    0.81330   0.68200   0.11300   Biso      1.000     C          -0.163942           
         C58       1.0000    0.78090   0.57400   0.12910   Biso      1.000     C          -0.004947999999999999         
         C59       1.0000    0.00100   0.30340   0.26470   Biso      1.000     C          -0.13331199999999999          
         C60       1.0000    0.76710   0.74320   0.16320   Biso      1.000     C          0.105779  
         F1        1.0000    0.39670   0.17580   0.82760   Biso      1.000     F          -0.10978800000000001          
         F2        1.0000    0.22090   0.82420   0.67240   Biso      1.000     F          -0.110088           
         F3        1.0000    0.77910   0.17580   0.32760   Biso      1.000     F          -0.11008699999999999          
         F4        1.0000    0.60330   0.82420   0.17240   Biso      1.000     F          -0.10979100000000001          
         H1        1.0000    0.66980   0.19280   0.90920   Biso      1.000     H          0.37787600000000005           
         H2        1.0000    0.33060   0.26280   0.72830   Biso      1.000     H          0.123824  
         H3        1.0000    0.31830   0.54360   0.79010   Biso      1.000     H          0.144053  
         H4        1.0000    0.13380   0.28660   0.93150   Biso      1.000     H          0.133409  
         H5        1.0000    0.33750   0.00120   0.89120   Biso      1.000     H          0.160997  
         H6        1.0000    0.04000   0.09200   0.88470   Biso      1.000     H          0.123839  
         H7        1.0000    0.00830   0.92620   0.93510   Biso      1.000     H          0.121974  
         H8        1.0000    0.06780   0.73720   0.77170   Biso      1.000     H          0.123521  
         H9        1.0000    0.77470   0.45640   0.70990   Biso      1.000     H          0.143243  
         H10       1.0000    0.84720   0.71340   0.56850   Biso      1.000     H          0.133554  
         H11       1.0000    0.33630   0.99880   0.60880   Biso      1.000     H          0.159838  
         H12       1.0000    0.94800   0.90800   0.61530   Biso      1.000     H          0.123847  
         H13       1.0000    0.08210   0.07380   0.56490   Biso      1.000     H          0.1214    
         H14       1.0000    0.52300   0.19280   0.40920   Biso      1.000     H          0.377749  
         H15       1.0000    0.66940   0.73720   0.27170   Biso      1.000     H          0.123823  
         H16       1.0000    0.91790   0.92620   0.43510   Biso      1.000     H          0.121399  
         H17       1.0000    0.33020   0.80720   0.09080   Biso      1.000     H          0.37785100000000005           
         H18       1.0000    0.05200   0.09200   0.38470   Biso      1.000     H          0.123846  
         H19       1.0000    0.66370   0.00120   0.39120   Biso      1.000     H          0.15983599999999998           
         H20       1.0000    0.15280   0.28660   0.43150   Biso      1.000     H          0.133553  
         H21       1.0000    0.93220   0.26280   0.22830   Biso      1.000     H          0.123518  
         H22       1.0000    0.22530   0.54360   0.29010   Biso      1.000     H          0.143238  
         H23       1.0000    0.99170   0.07380   0.06490   Biso      1.000     H          0.121974  
         H24       1.0000    0.96000   0.90800   0.11530   Biso      1.000     H          0.123839  
         H25       1.0000    0.66250   0.99880   0.10880   Biso      1.000     H          0.160996  
         H26       1.0000    0.86620   0.71340   0.06850   Biso      1.000     H          0.133409  
         H27       1.0000    0.68170   0.45640   0.20990   Biso      1.000     H          0.144053  
         H28       1.0000    0.47700   0.80720   0.59080   Biso      1.000     H          0.377705  
         O1        1.0000    0.75570   0.40480   0.05500   Biso      1.000     O          -0.556662           
         O2        1.0000    0.43260   0.74640   0.61020   Biso      1.000     O          -0.65086  
         O3        1.0000    0.92180   0.55100   0.03940   Biso      1.000     O          -0.742784           
         O4        1.0000    0.76580   0.17720   0.03720   Biso      1.000     O          -0.641777           
         O5        1.0000    0.94090   0.20860   0.00580   Biso      1.000     O          -0.627644           
         O6        1.0000    0.11790   0.54540   0.14810   Biso      1.000     O          -0.643659           
         O7        1.0000    0.68620   0.25360   0.88980   Biso      1.000     O          -0.651299           
         O8        1.0000    0.35090   0.59520   0.44500   Biso      1.000     O          -0.556873           
         O9        1.0000    0.37080   0.44900   0.46060   Biso      1.000     O          -0.74197  
         O10       1.0000    0.58860   0.82280   0.46280   Biso      1.000     O          -0.641896           
         O11       1.0000    0.73230   0.79140   0.49420   Biso      1.000     O          -0.628025           
         O12       1.0000    0.56300   0.61140   0.37900   Biso      1.000     O          -0.624287           
         O13       1.0000    0.95160   0.38860   0.12100   Biso      1.000     O          -0.624067           
         O14       1.0000    0.57250   0.45460   0.35190   Biso      1.000     O          -0.643181           
         O15       1.0000    0.43700   0.38860   0.62100   Biso      1.000     O          -0.624287           
         O16       1.0000    0.26770   0.20860   0.50580   Biso      1.000     O          -0.628027           
         O17       1.0000    0.42750   0.54540   0.64810   Biso      1.000     O          -0.643183           
         O18       1.0000    0.24430   0.59520   0.94500   Biso      1.000     O          -0.556658           
         O19       1.0000    0.07820   0.44900   0.96060   Biso      1.000     O          -0.742786           
         O20       1.0000    0.31380   0.74640   0.11020   Biso      1.000     O          -0.651239           
         O21       1.0000    0.05910   0.79140   0.99420   Biso      1.000     O          -0.627642           
         O22       1.0000    0.23420   0.82280   0.96280   Biso      1.000     O          -0.641775           
         O23       1.0000    0.88210   0.45460   0.85190   Biso      1.000     O          -0.6436609999999999           
         O24       1.0000    0.04840   0.61140   0.87900   Biso      1.000     O          -0.6240640000000001           
         O25       1.0000    0.64910   0.40480   0.55500   Biso      1.000     O          -0.5568850000000001           
         O26       1.0000    0.62920   0.55100   0.53940   Biso      1.000     O          -0.7419680000000001           
         O27       1.0000    0.41140   0.17720   0.53720   Biso      1.000     O          -0.641891           
         O28       1.0000    0.56740   0.25360   0.38980   Biso      1.000     O          -0.650958           
         Tb1       1.0000    0.87799   0.34548   0.96790   Biso      1.000     Tb          2.0185459999999997  
         Tb2       1.0000    0.53251   0.65452   0.53210   Biso      1.000     Tb          2.017329  
         Tb3       1.0000    0.12201   0.65452   0.03210   Biso      1.000     Tb          2.0185049999999998  
         Tb4       1.0000    0.46749   0.34548   0.46790   Biso      1.000     Tb          2.017383 