
##########################################################################
#               Crystallographic Information Format file
#               Produced by PyCifRW module
#
#  This is a CIF file.  CIF has been adopted by the International
#  Union of Crystallography as the standard for data archiving and
#  transmission.
#
#  For information on this file format, follow the CIF links at
#  http://www.iucr.org
##########################################################################

data_image0

_cell_length_a                          14.0907
_cell_length_b                          12.1434
_cell_length_c                          14.6345
_cell_angle_alpha                       90
_cell_angle_beta                        106.053
_cell_angle_gamma                       90
_symmetry_space_group_name_H-M          'P 1'
_symmetry_int_tables_number             1
loop_
  _symmetry_equiv_pos_as_xyz
         'x, y, z' 
loop_
  _atom_site_label
  _atom_site_occupancy
  _atom_site_fract_x
  _atom_site_fract_y
  _atom_site_fract_z
  _atom_site_thermal_displace_type
  _atom_site_B_iso_or_equiv
  _atom_site_type_symbol
  _atom_site_charge
         C1        1.0000    0.83945   0.99132   0.97361   Biso      1.000     C          0.536996  
         C2        1.0000    0.46209   0.81682   0.20979   Biso      1.000     C          0.110847  
         C3        1.0000    0.52526   0.72923   0.20977   Biso      1.000     C          -0.130077           
         C4        1.0000    0.58660   0.73205   0.14906   Biso      1.000     C          -0.047587           
         C5        1.0000    0.58452   0.82345   0.09197   Biso      1.000     C          -0.058668           
         C6        1.0000    0.52408   0.91119   0.10128   Biso      1.000     C          0.088255  
         C7        1.0000    0.88361   0.26023   0.74173   Biso      1.000     C          0.6155430000000001  
         C8        1.0000    0.11639   0.73977   0.25827   Biso      1.000     C          0.6155430000000001  
         C9        1.0000    0.91905   0.93064   0.04714   Biso      1.000     C          0.11695499999999999           
         C10       1.0000    0.98560   0.98656   0.12010   Biso      1.000     C          -0.140222           
         C11       1.0000    0.05241   0.92538   0.18927   Biso      1.000     C          -0.026066000000000002         
         C12       1.0000    0.04962   0.81102   0.18333   Biso      1.000     C          -0.048113           
         C13       1.0000    0.98270   0.76199   0.10577   Biso      1.000     C          0.083534  
         C14       1.0000    0.88821   0.67848   0.76760   Biso      1.000     C          0.558674  
         C15       1.0000    0.14280   0.66796   0.51897   Biso      1.000     C          0.614416  
         C16       1.0000    0.96209   0.68318   0.70979   Biso      1.000     C          0.110847  
         C17       1.0000    0.02526   0.77077   0.70977   Biso      1.000     C          -0.130077           
         C18       1.0000    0.08660   0.76795   0.64906   Biso      1.000     C          -0.047587           
         C19       1.0000    0.64280   0.83204   0.01897   Biso      1.000     C          0.614416  
         C20       1.0000    0.08452   0.67655   0.59197   Biso      1.000     C          -0.058668           
         C21       1.0000    0.38821   0.82152   0.26760   Biso      1.000     C          0.558674  
         C22       1.0000    0.54962   0.68898   0.68333   Biso      1.000     C          -0.048113           
         C23       1.0000    0.08095   0.06936   0.95286   Biso      1.000     C          0.11695499999999999           
         C24       1.0000    0.01440   0.01344   0.87990   Biso      1.000     C          -0.140222           
         C25       1.0000    0.94759   0.07462   0.81073   Biso      1.000     C          -0.026066000000000002         
         C26       1.0000    0.95038   0.18898   0.81667   Biso      1.000     C          -0.048113           
         C27       1.0000    0.01730   0.23801   0.89423   Biso      1.000     C          0.083534  
         C28       1.0000    0.11179   0.32152   0.23240   Biso      1.000     C          0.558674  
         C29       1.0000    0.85720   0.33204   0.48103   Biso      1.000     C          0.614416  
         C30       1.0000    0.03791   0.31682   0.29021   Biso      1.000     C          0.110847  
         C31       1.0000    0.97474   0.22923   0.29023   Biso      1.000     C          -0.130077           
         C32       1.0000    0.91340   0.23205   0.35094   Biso      1.000     C          -0.047587           
         C33       1.0000    0.91548   0.32345   0.40803   Biso      1.000     C          -0.058668           
         C34       1.0000    0.97592   0.41119   0.39872   Biso      1.000     C          0.088255  
         C35       1.0000    0.33945   0.50868   0.47361   Biso      1.000     C          0.536996  
         C36       1.0000    0.61639   0.76023   0.75827   Biso      1.000     C          0.6155430000000001  
         C37       1.0000    0.41905   0.56936   0.54714   Biso      1.000     C          0.11695499999999999           
         C38       1.0000    0.48560   0.51344   0.62010   Biso      1.000     C          -0.140222           
         C39       1.0000    0.55241   0.57462   0.68927   Biso      1.000     C          -0.026066000000000002         
         C40       1.0000    0.48270   0.73801   0.60577   Biso      1.000     C          0.083534  
         C41       1.0000    0.02408   0.58881   0.60128   Biso      1.000     C          0.088255  
         C42       1.0000    0.16055   0.00868   0.02639   Biso      1.000     C          0.536996  
         C43       1.0000    0.61179   0.17848   0.73240   Biso      1.000     C          0.558674  
         C44       1.0000    0.45038   0.31102   0.31667   Biso      1.000     C          -0.048113           
         C45       1.0000    0.44759   0.42538   0.31073   Biso      1.000     C          -0.026066000000000002         
         C46       1.0000    0.35720   0.16796   0.98103   Biso      1.000     C          0.614416  
         C47       1.0000    0.53791   0.18318   0.79021   Biso      1.000     C          0.110847  
         C48       1.0000    0.47474   0.27077   0.79023   Biso      1.000     C          -0.130077           
         C49       1.0000    0.41340   0.26795   0.85094   Biso      1.000     C          -0.047587           
         C50       1.0000    0.41548   0.17655   0.90803   Biso      1.000     C          -0.058668           
         C51       1.0000    0.51440   0.48656   0.37990   Biso      1.000     C          -0.14022300000000001          
         C52       1.0000    0.58095   0.43064   0.45286   Biso      1.000     C          0.11695699999999999           
         C53       1.0000    0.38361   0.23977   0.24173   Biso      1.000     C          0.6155430000000001  
         C54       1.0000    0.66055   0.49132   0.52639   Biso      1.000     C          0.536996  
         C55       1.0000    0.51730   0.26199   0.39423   Biso      1.000     C          0.083534  
         C56       1.0000    0.47592   0.08881   0.89872   Biso      1.000     C          0.088255  
         H1        1.0000    0.98240   0.68400   0.10030   Biso      1.000     H          0.10711400000000001           
         H2        1.0000    0.51760   0.18400   0.39970   Biso      1.000     H          0.10711400000000001           
         H3        1.0000    0.62910   0.67190   0.14710   Biso      1.000     H          0.12887200000000001           
         H4        1.0000    0.01450   0.93530   0.87720   Biso      1.000     H          0.13603900000000002           
         H5        1.0000    0.90070   0.03880   0.76020   Biso      1.000     H          0.136077  
         H6        1.0000    0.52720   0.97710   0.06730   Biso      1.000     H          0.101338  
         H7        1.0000    0.40070   0.46120   0.26020   Biso      1.000     H          0.136077  
         H8        1.0000    0.02720   0.52290   0.56730   Biso      1.000     H          0.101338  
         H9        1.0000    0.01760   0.31600   0.89970   Biso      1.000     H          0.10711400000000001           
         H10       1.0000    0.48240   0.81600   0.60030   Biso      1.000     H          0.10711400000000001           
         H11       1.0000    0.47310   0.33210   0.74950   Biso      1.000     H          0.132961  
         H12       1.0000    0.97310   0.16790   0.24950   Biso      1.000     H          0.132961  
         H13       1.0000    0.59930   0.53880   0.73980   Biso      1.000     H          0.136077  
         H14       1.0000    0.37090   0.32810   0.85290   Biso      1.000     H          0.12887200000000001           
         H15       1.0000    0.12910   0.82810   0.64710   Biso      1.000     H          0.12887200000000001           
         H16       1.0000    0.87090   0.17190   0.35290   Biso      1.000     H          0.12887200000000001           
         H17       1.0000    0.47280   0.02290   0.93270   Biso      1.000     H          0.101338  
         H18       1.0000    0.02690   0.83210   0.75050   Biso      1.000     H          0.132961  
         H19       1.0000    0.52690   0.66790   0.25050   Biso      1.000     H          0.132961  
         H20       1.0000    0.98550   0.06470   0.12280   Biso      1.000     H          0.13603900000000002           
         H21       1.0000    0.09930   0.96120   0.23980   Biso      1.000     H          0.136077  
         H22       1.0000    0.97280   0.47710   0.43270   Biso      1.000     H          0.101338  
         H23       1.0000    0.48550   0.43530   0.62280   Biso      1.000     H          0.13603900000000002           
         H24       1.0000    0.51450   0.56470   0.37720   Biso      1.000     H          0.13603900000000002           
         N1        1.0000    0.03813   0.40698   0.34421   Biso      1.000     N          -0.24755300000000002          
         N2        1.0000    0.53813   0.09302   0.84421   Biso      1.000     N          -0.24755300000000002          
         N3        1.0000    0.58102   0.32033   0.46120   Biso      1.000     N          -0.24704099999999998          
         N4        1.0000    0.08102   0.17967   0.96120   Biso      1.000     N          -0.24704  
         N5        1.0000    0.96187   0.59302   0.65579   Biso      1.000     N          -0.24755300000000002          
         N6        1.0000    0.41898   0.67967   0.53880   Biso      1.000     N          -0.24704  
         N7        1.0000    0.46187   0.90698   0.15579   Biso      1.000     N          -0.24755300000000002          
         N8        1.0000    0.91898   0.82033   0.03880   Biso      1.000     N          -0.24704  
         O1        1.0000    0.78954   0.93113   0.90368   Biso      1.000     O          -0.568772           
         O2        1.0000    0.82541   0.08896   0.98455   Biso      1.000     O          -0.5066430000000001           
         O3        1.0000    0.38673   0.09203   0.04120   Biso      1.000     O          -0.5779479999999999           
         O4        1.0000    0.21160   0.73311   0.52388   Biso      1.000     O          -0.5658850000000001           
         O5        1.0000    0.11327   0.59203   0.45880   Biso      1.000     O          -0.5779479999999999           
         O6        1.0000    0.89142   0.75342   0.82761   Biso      1.000     O          -0.532185           
         O7        1.0000    0.82930   0.59833   0.74990   Biso      1.000     O          -0.526069           
         O8        1.0000    0.71046   0.43113   0.59632   Biso      1.000     O          -0.568772           
         O9        1.0000    0.17703   0.78772   0.32494   Biso      1.000     O          -0.539764           
         O10       1.0000    0.67459   0.58896   0.51545   Biso      1.000     O          -0.5066430000000001           
         O11       1.0000    0.39655   0.13683   0.25312   Biso      1.000     O          -0.553284           
         O12       1.0000    0.32297   0.28772   0.17506   Biso      1.000     O          -0.539764           
         O13       1.0000    0.67070   0.09833   0.75010   Biso      1.000     O          -0.526069           
         O14       1.0000    0.21046   0.06887   0.09632   Biso      1.000     O          -0.568772           
         O15       1.0000    0.17459   0.91104   0.01545   Biso      1.000     O          -0.5066430000000001           
         O16       1.0000    0.82297   0.21228   0.67506   Biso      1.000     O          -0.539764           
         O17       1.0000    0.10345   0.63683   0.24688   Biso      1.000     O          -0.553284           
         O18       1.0000    0.28954   0.56887   0.40368   Biso      1.000     O          -0.568772           
         O19       1.0000    0.32541   0.41104   0.48455   Biso      1.000     O          -0.5066430000000001           
         O20       1.0000    0.60345   0.86317   0.74688   Biso      1.000     O          -0.553284           
         O21       1.0000    0.67703   0.71228   0.82494   Biso      1.000     O          -0.539764           
         O22       1.0000    0.32930   0.90167   0.24990   Biso      1.000     O          -0.526069           
         O23       1.0000    0.39142   0.74658   0.32761   Biso      1.000     O          -0.532185           
         O24       1.0000    0.89655   0.36317   0.75312   Biso      1.000     O          -0.553284           
         O25       1.0000    0.61327   0.90797   0.95880   Biso      1.000     O          -0.5779479999999999           
         O26       1.0000    0.28840   0.23311   0.97612   Biso      1.000     O          -0.5658850000000001           
         O27       1.0000    0.78840   0.26689   0.47612   Biso      1.000     O          -0.5658850000000001           
         O28       1.0000    0.88673   0.40797   0.54120   Biso      1.000     O          -0.5779479999999999           
         O29       1.0000    0.10858   0.24658   0.17239   Biso      1.000     O          -0.532185           
         O30       1.0000    0.17070   0.40167   0.25010   Biso      1.000     O          -0.526069           
         O31       1.0000    0.71160   0.76689   0.02388   Biso      1.000     O          -0.5658850000000001           
         O32       1.0000    0.60858   0.25342   0.67239   Biso      1.000     O          -0.532185           
         Zn1       1.0000    0.35012   0.02137   0.15646   Biso      1.000     Zn          0.907515  
         Zn2       1.0000    0.80369   0.75683   0.92574   Biso      1.000     Zn          0.940739  
         Zn3       1.0000    0.30369   0.74317   0.42574   Biso      1.000     Zn          0.940739  
         Zn4       1.0000    0.85012   0.47863   0.65646   Biso      1.000     Zn          0.907515  
         Zn5       1.0000    0.69631   0.25683   0.57426   Biso      1.000     Zn          0.940739  
         Zn6       1.0000    0.64988   0.97863   0.84354   Biso      1.000     Zn          0.907515  
         Zn7       1.0000    0.14988   0.52137   0.34354   Biso      1.000     Zn          0.907515  
         Zn8       1.0000    0.19631   0.24317   0.07426   Biso      1.000     Zn          0.940739 