
##########################################################################
#               Crystallographic Information Format file
#               Produced by PyCifRW module
#
#  This is a CIF file.  CIF has been adopted by the International
#  Union of Crystallography as the standard for data archiving and
#  transmission.
#
#  For information on this file format, follow the CIF links at
#  http://www.iucr.org
##########################################################################

data_image0

_cell_length_a                          9.727
_cell_length_b                          17.0204
_cell_length_c                          15.2959
_cell_angle_alpha                       90
_cell_angle_beta                        96.8477
_cell_angle_gamma                       90
_symmetry_space_group_name_H-M          'P 1'
_symmetry_int_tables_number             1
loop_
  _symmetry_equiv_pos_as_xyz
         'x, y, z' 
loop_
  _atom_site_label
  _atom_site_occupancy
  _atom_site_fract_x
  _atom_site_fract_y
  _atom_site_fract_z
  _atom_site_thermal_displace_type
  _atom_site_B_iso_or_equiv
  _atom_site_type_symbol
  _atom_site_charge
         C1        1.0000    0.45580   0.89960   0.30930   Biso      1.000     C          -0.078427           
         C2        1.0000    0.31330   0.25480   0.75030   Biso      1.000     C          -0.106077           
         C3        1.0000    0.39100   0.30260   0.70260   Biso      1.000     C          -0.122094           
         C4        1.0000    0.52070   0.33037   0.73929   Biso      1.000     C          0.064694  
         C5        1.0000    0.81380   0.01733   0.86599   Biso      1.000     C          0.579734  
         C6        1.0000    0.56880   0.30720   0.82510   Biso      1.000     C          -0.151444           
         C7        1.0000    0.74690   0.06705   0.79057   Biso      1.000     C          -0.025957           
         C8        1.0000    0.48980   0.25960   0.87280   Biso      1.000     C          -0.107625           
         C9        1.0000    0.35920   0.23380   0.83650   Biso      1.000     C          -0.011564           
         C10       1.0000    0.27090   0.18460   0.88847   Biso      1.000     C          0.551881  
         C11       1.0000    0.82320   0.12247   0.75005   Biso      1.000     C          -0.165639           
         C12       1.0000    0.09800   0.71310   0.49770   Biso      1.000     C          0.089152  
         C13       1.0000    0.17420   0.76730   0.45830   Biso      1.000     C          -0.202231           
         C14       1.0000    0.15650   0.77636   0.36700   Biso      1.000     C          0.130076  
         C15       1.0000    0.76250   0.16626   0.67810   Biso      1.000     C          0.05169   
         C16       1.0000    0.05950   0.72767   0.31960   Biso      1.000     C          -0.185886           
         C17       1.0000    0.62150   0.15450   0.64890   Biso      1.000     C          -0.136921           
         C18       1.0000    0.98670   0.67459   0.36430   Biso      1.000     C          0.097693  
         C19       1.0000    0.39360   0.94410   0.23920   Biso      1.000     C          -0.103558           
         C20       1.0000    0.54420   0.10040   0.69070   Biso      1.000     C          -0.078426           
         C21       1.0000    0.27090   0.31540   0.38847   Biso      1.000     C          0.551881  
         C22       1.0000    0.37850   0.84550   0.35110   Biso      1.000     C          -0.13692  
         C23       1.0000    0.23750   0.83374   0.32190   Biso      1.000     C          0.05169   
         C24       1.0000    0.60640   0.05590   0.76080   Biso      1.000     C          -0.103558           
         C25       1.0000    0.78460   0.47630   0.67800   Biso      1.000     C          0.087145  
         C26       1.0000    0.65020   0.05990   0.05199   Biso      1.000     C          0.090073  
         C27       1.0000    0.71310   0.42782   0.72850   Biso      1.000     C          -0.205124           
         C28       1.0000    0.60340   0.38240   0.68815   Biso      1.000     C          0.115499  
         C29       1.0000    0.48980   0.24040   0.37280   Biso      1.000     C          -0.10763  
         C30       1.0000    0.09800   0.78690   0.99770   Biso      1.000     C          0.089152  
         C31       1.0000    0.17420   0.73270   0.95830   Biso      1.000     C          -0.202231           
         C32       1.0000    0.15650   0.72364   0.86700   Biso      1.000     C          0.130076  
         C33       1.0000    0.56880   0.19280   0.32510   Biso      1.000     C          -0.151439           
         C34       1.0000    0.05950   0.77233   0.81960   Biso      1.000     C          -0.185886           
         C35       1.0000    0.98670   0.82541   0.86430   Biso      1.000     C          0.097693  
         C36       1.0000    0.52070   0.16963   0.23929   Biso      1.000     C          0.064693  
         C37       1.0000    0.39360   0.55590   0.73920   Biso      1.000     C          -0.103558           
         C38       1.0000    0.39100   0.19740   0.20260   Biso      1.000     C          -0.122094           
         C39       1.0000    0.45580   0.60040   0.80930   Biso      1.000     C          -0.078427           
         C40       1.0000    0.17680   0.87753   0.24995   Biso      1.000     C          -0.165639           
         C41       1.0000    0.37850   0.65450   0.85110   Biso      1.000     C          -0.13692  
         C42       1.0000    0.31330   0.24520   0.25030   Biso      1.000     C          -0.106077           
         C43       1.0000    0.17680   0.62247   0.74995   Biso      1.000     C          -0.165639           
         C44       1.0000    0.25310   0.56705   0.70943   Biso      1.000     C          -0.025958           
         C45       1.0000    0.18620   0.51733   0.63401   Biso      1.000     C          0.579734  
         C46       1.0000    0.78460   0.02370   0.17800   Biso      1.000     C          0.087145  
         C47       1.0000    0.71310   0.07218   0.22850   Biso      1.000     C          -0.205124           
         C48       1.0000    0.60340   0.11760   0.18815   Biso      1.000     C          0.115499  
         C49       1.0000    0.34980   0.55990   0.44801   Biso      1.000     C          0.090073  
         C50       1.0000    0.65020   0.44010   0.55199   Biso      1.000     C          0.090073  
         C51       1.0000    0.57480   0.11000   0.09714   Biso      1.000     C          -0.177197           
         C52       1.0000    0.57480   0.39000   0.59714   Biso      1.000     C          -0.177197           
         C53       1.0000    0.23750   0.66626   0.82190   Biso      1.000     C          0.05169   
         C54       1.0000    0.25310   0.93295   0.20943   Biso      1.000     C          -0.025958           
         C55       1.0000    0.35920   0.26620   0.33650   Biso      1.000     C          -0.011563           
         C56       1.0000    0.43120   0.80720   0.67490   Biso      1.000     C          -0.151444           
         C57       1.0000    0.54420   0.39960   0.19070   Biso      1.000     C          -0.078427           
         C58       1.0000    0.51020   0.75960   0.62720   Biso      1.000     C          -0.107625           
         C59       1.0000    0.81380   0.48267   0.36599   Biso      1.000     C          0.579734  
         C60       1.0000    0.64080   0.73380   0.66350   Biso      1.000     C          -0.011564           
         C61       1.0000    0.72910   0.68460   0.61153   Biso      1.000     C          0.551881  
         C62       1.0000    0.43120   0.69280   0.17490   Biso      1.000     C          -0.151444           
         C63       1.0000    0.18620   0.98267   0.13401   Biso      1.000     C          0.579734  
         C64       1.0000    0.90200   0.21310   0.00230   Biso      1.000     C          0.089152  
         C65       1.0000    0.74690   0.43295   0.29057   Biso      1.000     C          -0.025957           
         C66       1.0000    0.51020   0.74040   0.12720   Biso      1.000     C          -0.107625           
         C67       1.0000    0.82580   0.26730   0.04170   Biso      1.000     C          -0.202231           
         C68       1.0000    0.47930   0.66963   0.26071   Biso      1.000     C          0.064694  
         C69       1.0000    0.94050   0.22767   0.18040   Biso      1.000     C          -0.185886           
         C70       1.0000    0.82320   0.37753   0.25005   Biso      1.000     C          -0.165639           
         C71       1.0000    0.60900   0.69740   0.29740   Biso      1.000     C          -0.122094           
         C72       1.0000    0.21540   0.52370   0.32200   Biso      1.000     C          0.087144  
         C73       1.0000    0.01330   0.17459   0.13570   Biso      1.000     C          0.097693  
         C74       1.0000    0.76250   0.33374   0.17810   Biso      1.000     C          0.05169   
         C75       1.0000    0.60640   0.44410   0.26080   Biso      1.000     C          -0.103558           
         C76       1.0000    0.68670   0.74520   0.24970   Biso      1.000     C          -0.106077           
         C77       1.0000    0.84350   0.27636   0.13300   Biso      1.000     C          0.130076  
         C78       1.0000    0.47930   0.83037   0.76071   Biso      1.000     C          0.064694  
         C79       1.0000    0.62150   0.34550   0.14890   Biso      1.000     C          -0.13692  
         C80       1.0000    0.64080   0.76620   0.16350   Biso      1.000     C          -0.011564           
         C81       1.0000    0.01330   0.32541   0.63570   Biso      1.000     C          0.09769   
         C82       1.0000    0.94050   0.27233   0.68040   Biso      1.000     C          -0.185882           
         C83       1.0000    0.42520   0.61000   0.40286   Biso      1.000     C          -0.177197           
         C84       1.0000    0.84350   0.22364   0.63300   Biso      1.000     C          0.130076  
         C85       1.0000    0.82580   0.23270   0.54170   Biso      1.000     C          -0.202237           
         C86       1.0000    0.39660   0.61760   0.31185   Biso      1.000     C          0.115499  
         C87       1.0000    0.60900   0.80260   0.79740   Biso      1.000     C          -0.122094           
         C88       1.0000    0.42520   0.89000   0.90286   Biso      1.000     C          -0.177199           
         C89       1.0000    0.39660   0.88240   0.81185   Biso      1.000     C          0.1155    
         C90       1.0000    0.34980   0.94010   0.94801   Biso      1.000     C          0.090075  
         C91       1.0000    0.28690   0.92782   0.77150   Biso      1.000     C          -0.205127           
         C92       1.0000    0.28690   0.57218   0.27150   Biso      1.000     C          -0.205124           
         C93       1.0000    0.21540   0.97630   0.82200   Biso      1.000     C          0.087147  
         C94       1.0000    0.72910   0.81540   0.11153   Biso      1.000     C          0.551881  
         C95       1.0000    0.68670   0.75480   0.74970   Biso      1.000     C          -0.106077           
         C96       1.0000    0.90200   0.28690   0.50230   Biso      1.000     C          0.089158  
         Cd1       1.0000    0.13314   0.41974   0.48068   Biso      1.000     Cd          0.866668  
         Cd2       1.0000    0.13314   0.08026   0.98068   Biso      1.000     Cd          0.866668  
         Cd3       1.0000    0.86686   0.91974   0.01932   Biso      1.000     Cd          0.866668  
         Cd4       1.0000    0.86686   0.58026   0.51932   Biso      1.000     Cd          0.866668  
         H1        1.0000    0.26210   0.57480   0.20960   Biso      1.000     H          0.126765  
         H2        1.0000    0.14060   0.49410   0.29310   Biso      1.000     H          0.095848  
         H3        1.0000    0.52480   0.25570   0.43100   Biso      1.000     H          0.106983  
         H4        1.0000    0.65730   0.17570   0.35120   Biso      1.000     H          0.104245  
         H5        1.0000    0.35610   0.18310   0.14410   Biso      1.000     H          0.123504  
         H6        1.0000    0.49770   0.64000   0.43380   Biso      1.000     H          0.135115  
         H7        1.0000    0.55390   0.01810   0.78830   Biso      1.000     H          0.110483  
         H8        1.0000    0.64390   0.68310   0.35590   Biso      1.000     H          0.123503  
         H9        1.0000    0.22640   0.26420   0.22370   Biso      1.000     H          0.106819  
         H10       1.0000    0.85940   0.99410   0.20690   Biso      1.000     H          0.095848  
         H11       1.0000    0.73790   0.07480   0.29040   Biso      1.000     H          0.126765  
         H12       1.0000    0.34270   0.67570   0.14880   Biso      1.000     H          0.104246  
         H13       1.0000    0.62730   0.05580   0.99000   Biso      1.000     H          0.095225  
         H14       1.0000    0.47520   0.75570   0.06900   Biso      1.000     H          0.106982  
         H15       1.0000    0.88790   0.29170   0.44000   Biso      1.000     H          0.096073  
         H16       1.0000    0.91780   0.13070   0.77150   Biso      1.000     H          0.126826  
         H17       1.0000    0.76040   0.20100   0.50670   Biso      1.000     H          0.124876  
         H18       1.0000    0.57850   0.18380   0.60030   Biso      1.000     H          0.112237  
         H19       1.0000    0.44850   0.09380   0.67120   Biso      1.000     H          0.109749  
         H20       1.0000    0.95640   0.26900   0.74280   Biso      1.000     H          0.134437  
         H21       1.0000    0.07930   0.35790   0.66920   Biso      1.000     H          0.09379   
         H22       1.0000    0.77360   0.76420   0.27630   Biso      1.000     H          0.106819  
         H23       1.0000    0.50230   0.14000   0.06620   Biso      1.000     H          0.135115  
         H24       1.0000    0.62730   0.44420   0.49000   Biso      1.000     H          0.095225  
         H25       1.0000    0.23960   0.70100   0.99330   Biso      1.000     H          0.124875  
         H26       1.0000    0.04360   0.73100   0.25720   Biso      1.000     H          0.134437  
         H27       1.0000    0.92070   0.64210   0.33080   Biso      1.000     H          0.09379   
         H28       1.0000    0.44610   0.98190   0.21170   Biso      1.000     H          0.110483  
         H29       1.0000    0.11210   0.79170   0.06000   Biso      1.000     H          0.096074  
         H30       1.0000    0.42150   0.81620   0.39970   Biso      1.000     H          0.112237  
         H31       1.0000    0.08220   0.86930   0.22850   Biso      1.000     H          0.126826  
         H32       1.0000    0.37270   0.94420   0.01000   Biso      1.000     H          0.095225  
         H33       1.0000    0.49770   0.86000   0.93380   Biso      1.000     H          0.135115  
         H34       1.0000    0.26210   0.92520   0.70960   Biso      1.000     H          0.126765  
         H35       1.0000    0.14060   0.00590   0.79310   Biso      1.000     H          0.095848  
         H36       1.0000    0.23960   0.79900   0.49330   Biso      1.000     H          0.124875  
         H37       1.0000    0.77360   0.73580   0.77630   Biso      1.000     H          0.106819  
         H38       1.0000    0.34270   0.82430   0.64880   Biso      1.000     H          0.104246  
         H39       1.0000    0.47520   0.74430   0.56900   Biso      1.000     H          0.106982  
         H40       1.0000    0.88790   0.20830   0.94000   Biso      1.000     H          0.096074  
         H41       1.0000    0.76040   0.29900   0.00670   Biso      1.000     H          0.124875  
         H42       1.0000    0.95640   0.23100   0.24280   Biso      1.000     H          0.134437  
         H43       1.0000    0.07930   0.14210   0.16920   Biso      1.000     H          0.09379   
         H44       1.0000    0.55390   0.48190   0.28830   Biso      1.000     H          0.110483  
         H45       1.0000    0.44850   0.40620   0.17120   Biso      1.000     H          0.109749  
         H46       1.0000    0.57850   0.31620   0.10030   Biso      1.000     H          0.112237  
         H47       1.0000    0.91780   0.36930   0.27150   Biso      1.000     H          0.126826  
         H48       1.0000    0.64390   0.81690   0.85590   Biso      1.000     H          0.123503  
         H49       1.0000    0.11210   0.70830   0.56000   Biso      1.000     H          0.096074  
         H50       1.0000    0.55150   0.90620   0.32880   Biso      1.000     H          0.109749  
         H51       1.0000    0.65730   0.32430   0.85120   Biso      1.000     H          0.104246  
         H52       1.0000    0.04360   0.76900   0.75720   Biso      1.000     H          0.134437  
         H53       1.0000    0.92070   0.85790   0.83080   Biso      1.000     H          0.09379   
         H54       1.0000    0.44610   0.51810   0.71170   Biso      1.000     H          0.110483  
         H55       1.0000    0.55150   0.59380   0.82880   Biso      1.000     H          0.109749  
         H56       1.0000    0.42150   0.68380   0.89970   Biso      1.000     H          0.112237  
         H57       1.0000    0.08220   0.63070   0.72850   Biso      1.000     H          0.126826  
         H58       1.0000    0.52480   0.24430   0.93100   Biso      1.000     H          0.106982  
         H59       1.0000    0.50230   0.36000   0.56620   Biso      1.000     H          0.135115  
         H60       1.0000    0.73790   0.42520   0.79040   Biso      1.000     H          0.126765  
         H61       1.0000    0.85940   0.50590   0.70690   Biso      1.000     H          0.095848  
         H62       1.0000    0.22640   0.23580   0.72370   Biso      1.000     H          0.106819  
         H63       1.0000    0.37270   0.55580   0.51000   Biso      1.000     H          0.095225  
         H64       1.0000    0.35610   0.31690   0.64410   Biso      1.000     H          0.123503  
         N1        1.0000    0.00340   0.66606   0.45165   Biso      1.000     N          -0.227619           
         N2        1.0000    0.75550   0.48427   0.59074   Biso      1.000     N          -0.227815           
         N3        1.0000    0.99660   0.16606   0.04835   Biso      1.000     N          -0.227619           
         N4        1.0000    0.00340   0.83394   0.95165   Biso      1.000     N          -0.227619           
         N5        1.0000    0.75550   0.01573   0.09074   Biso      1.000     N          -0.227815           
         N6        1.0000    0.24450   0.98427   0.90926   Biso      1.000     N          -0.227815           
         N7        1.0000    0.24450   0.51573   0.40926   Biso      1.000     N          -0.227815           
         N8        1.0000    0.99660   0.33394   0.54835   Biso      1.000     N          -0.227619           
         O1        1.0000    0.25540   0.03890   0.11007   Biso      1.000     O          -0.5513   
         O2        1.0000    0.74460   0.53890   0.38993   Biso      1.000     O          -0.5513   
         O3        1.0000    0.68380   0.66776   0.53282   Biso      1.000     O          -0.567995           
         O4        1.0000    0.84550   0.66152   0.64735   Biso      1.000     O          -0.578998           
         O5        1.0000    0.93130   0.46602   0.40116   Biso      1.000     O          -0.59381  
         O6        1.0000    0.68380   0.83224   0.03282   Biso      1.000     O          -0.567995           
         O7        1.0000    0.84550   0.83848   0.14735   Biso      1.000     O          -0.578998           
         O8        1.0000    0.31620   0.16776   0.96718   Biso      1.000     O          -0.567995           
         O9        1.0000    0.74460   0.96110   0.88993   Biso      1.000     O          -0.5513   
         O10       1.0000    0.06870   0.53398   0.59884   Biso      1.000     O          -0.59381  
         O11       1.0000    0.15450   0.33848   0.35265   Biso      1.000     O          -0.578998           
         O12       1.0000    0.31620   0.33224   0.46718   Biso      1.000     O          -0.567995           
         O13       1.0000    0.06870   0.96602   0.09884   Biso      1.000     O          -0.59381  
         O14       1.0000    0.15450   0.16152   0.85265   Biso      1.000     O          -0.578998           
         O15       1.0000    0.93130   0.03398   0.90116   Biso      1.000     O          -0.59381  
         O16       1.0000    0.25540   0.46110   0.61007   Biso      1.000     O          -0.5513 