
##########################################################################
#               Crystallographic Information Format file
#               Produced by PyCifRW module
#
#  This is a CIF file.  CIF has been adopted by the International
#  Union of Crystallography as the standard for data archiving and
#  transmission.
#
#  For information on this file format, follow the CIF links at
#  http://www.iucr.org
##########################################################################

data_image0

_cell_length_a                          9.7904
_cell_length_b                          17.366
_cell_length_c                          15.2569
_cell_angle_alpha                       90
_cell_angle_beta                        95.4829
_cell_angle_gamma                       90
_symmetry_space_group_name_H-M          'P 1'
_symmetry_int_tables_number             1
loop_
  _symmetry_equiv_pos_as_xyz
         'x, y, z' 
loop_
  _atom_site_label
  _atom_site_occupancy
  _atom_site_fract_x
  _atom_site_fract_y
  _atom_site_fract_z
  _atom_site_thermal_displace_type
  _atom_site_B_iso_or_equiv
  _atom_site_type_symbol
  _atom_site_charge
         C1        1.0000    0.44860   0.89370   0.29820   Biso      1.000     C          -0.077171           
         C2        1.0000    0.31530   0.26110   0.75940   Biso      1.000     C          -0.109796           
         C3        1.0000    0.39210   0.31000   0.71160   Biso      1.000     C          -0.12776300000000002          
         C4        1.0000    0.51970   0.33583   0.74600   Biso      1.000     C          0.06902   
         C5        1.0000    0.82160   0.02216   0.86912   Biso      1.000     C          0.584957  
         C6        1.0000    0.56840   0.31100   0.82910   Biso      1.000     C          -0.151783           
         C7        1.0000    0.75330   0.07212   0.79650   Biso      1.000     C          -0.021557           
         C8        1.0000    0.49200   0.26230   0.87730   Biso      1.000     C          -0.112604           
         C9        1.0000    0.36260   0.23800   0.84290   Biso      1.000     C          -0.008583           
         C10       1.0000    0.27640   0.18670   0.89460   Biso      1.000     C          0.55592   
         C11       1.0000    0.82750   0.12782   0.75570   Biso      1.000     C          -0.174336           
         C12       1.0000    0.09550   0.70920   0.49170   Biso      1.000     C          0.08667000000000001           
         C13       1.0000    0.17250   0.76220   0.45110   Biso      1.000     C          -0.20247300000000001          
         C14       1.0000    0.15430   0.77120   0.36020   Biso      1.000     C          0.131878  
         C15       1.0000    0.76570   0.17140   0.68590   Biso      1.000     C          0.055546000000000005          
         C16       1.0000    0.05860   0.72410   0.31500   Biso      1.000     C          -0.189245           
         C17       1.0000    0.62690   0.15970   0.65920   Biso      1.000     C          -0.13939300000000002          
         C18       1.0000    0.98670   0.67130   0.36030   Biso      1.000     C          0.09736   
         C19       1.0000    0.38570   0.93810   0.23040   Biso      1.000     C          -0.105707           
         C20       1.0000    0.55140   0.10630   0.70180   Biso      1.000     C          -0.07717  
         C21       1.0000    0.27640   0.31330   0.39460   Biso      1.000     C          0.55592   
         C22       1.0000    0.37310   0.84030   0.34080   Biso      1.000     C          -0.13939100000000001          
         C23       1.0000    0.23430   0.82860   0.31410   Biso      1.000     C          0.055546000000000005          
         C24       1.0000    0.61430   0.06190   0.76960   Biso      1.000     C          -0.105708           
         C25       1.0000    0.77790   0.48130   0.68180   Biso      1.000     C          0.087608  
         C26       1.0000    0.65030   0.05630   0.05780   Biso      1.000     C          0.088308  
         C27       1.0000    0.70720   0.43290   0.73320   Biso      1.000     C          -0.208679           
         C28       1.0000    0.60130   0.38769   0.69410   Biso      1.000     C          0.11857899999999999           
         C29       1.0000    0.49200   0.23770   0.37730   Biso      1.000     C          -0.112604           
         C30       1.0000    0.09550   0.79080   0.99170   Biso      1.000     C          0.08667000000000001           
         C31       1.0000    0.17250   0.73780   0.95110   Biso      1.000     C          -0.20247300000000001          
         C32       1.0000    0.15430   0.72880   0.86020   Biso      1.000     C          0.131878  
         C33       1.0000    0.56840   0.18900   0.32910   Biso      1.000     C          -0.151784           
         C34       1.0000    0.05860   0.77590   0.81500   Biso      1.000     C          -0.189245           
         C35       1.0000    0.98670   0.82870   0.86030   Biso      1.000     C          0.09736   
         C36       1.0000    0.51970   0.16417   0.24600   Biso      1.000     C          0.06901900000000001           
         C37       1.0000    0.38570   0.56190   0.73040   Biso      1.000     C          -0.105709           
         C38       1.0000    0.39210   0.19000   0.21160   Biso      1.000     C          -0.12776500000000002          
         C39       1.0000    0.44860   0.60630   0.79820   Biso      1.000     C          -0.07717  
         C40       1.0000    0.17250   0.87218   0.24430   Biso      1.000     C          -0.174336           
         C41       1.0000    0.37310   0.65970   0.84080   Biso      1.000     C          -0.13939200000000002          
         C42       1.0000    0.31530   0.23890   0.25940   Biso      1.000     C          -0.109792           
         C43       1.0000    0.17250   0.62782   0.74430   Biso      1.000     C          -0.174336           
         C44       1.0000    0.24670   0.57212   0.70350   Biso      1.000     C          -0.021557           
         C45       1.0000    0.17840   0.52216   0.63088   Biso      1.000     C          0.584957  
         C46       1.0000    0.77790   0.01870   0.18180   Biso      1.000     C          0.087608  
         C47       1.0000    0.70720   0.06710   0.23320   Biso      1.000     C          -0.208679           
         C48       1.0000    0.60130   0.11231   0.19410   Biso      1.000     C          0.11857899999999999           
         C49       1.0000    0.34970   0.55630   0.44220   Biso      1.000     C          0.088308  
         C50       1.0000    0.65030   0.44370   0.55780   Biso      1.000     C          0.088308  
         C51       1.0000    0.57500   0.10570   0.10350   Biso      1.000     C          -0.179242           
         C52       1.0000    0.57500   0.39430   0.60350   Biso      1.000     C          -0.179242           
         C53       1.0000    0.23430   0.67140   0.81410   Biso      1.000     C          0.055546000000000005          
         C54       1.0000    0.24670   0.92788   0.20350   Biso      1.000     C          -0.021557           
         C55       1.0000    0.36260   0.26200   0.34290   Biso      1.000     C          -0.008583           
         C56       1.0000    0.43160   0.81100   0.67090   Biso      1.000     C          -0.151784           
         C57       1.0000    0.55140   0.39370   0.20180   Biso      1.000     C          -0.077171           
         C58       1.0000    0.50800   0.76230   0.62270   Biso      1.000     C          -0.112604           
         C59       1.0000    0.82160   0.47784   0.36912   Biso      1.000     C          0.584957  
         C60       1.0000    0.63740   0.73800   0.65710   Biso      1.000     C          -0.008587000000000001         
         C61       1.0000    0.72360   0.68670   0.60540   Biso      1.000     C          0.55592   
         C62       1.0000    0.43160   0.68900   0.17090   Biso      1.000     C          -0.151784           
         C63       1.0000    0.17840   0.97784   0.13088   Biso      1.000     C          0.584957  
         C64       1.0000    0.90450   0.20920   0.00830   Biso      1.000     C          0.086671  
         C65       1.0000    0.75330   0.42788   0.29650   Biso      1.000     C          -0.021557           
         C66       1.0000    0.50800   0.73770   0.12270   Biso      1.000     C          -0.112604           
         C67       1.0000    0.82750   0.26220   0.04890   Biso      1.000     C          -0.202474           
         C68       1.0000    0.48030   0.66417   0.25400   Biso      1.000     C          0.06901900000000001           
         C69       1.0000    0.94140   0.22410   0.18500   Biso      1.000     C          -0.189248           
         C70       1.0000    0.82750   0.37218   0.25570   Biso      1.000     C          -0.174336           
         C71       1.0000    0.60790   0.69000   0.28840   Biso      1.000     C          -0.12776500000000002          
         C72       1.0000    0.22210   0.51870   0.31820   Biso      1.000     C          0.087608  
         C73       1.0000    0.01330   0.17130   0.13970   Biso      1.000     C          0.09736   
         C74       1.0000    0.76570   0.32860   0.18590   Biso      1.000     C          0.055546000000000005          
         C75       1.0000    0.61430   0.43810   0.26960   Biso      1.000     C          -0.105708           
         C76       1.0000    0.68470   0.73890   0.24060   Biso      1.000     C          -0.109792           
         C77       1.0000    0.84570   0.27120   0.13980   Biso      1.000     C          0.13188   
         C78       1.0000    0.48030   0.83583   0.75400   Biso      1.000     C          0.06901900000000001           
         C79       1.0000    0.62690   0.34030   0.15920   Biso      1.000     C          -0.13939200000000002          
         C80       1.0000    0.63740   0.76200   0.15710   Biso      1.000     C          -0.008583           
         C81       1.0000    0.01330   0.32870   0.63970   Biso      1.000     C          0.097356  
         C82       1.0000    0.94140   0.27590   0.68500   Biso      1.000     C          -0.189244           
         C83       1.0000    0.42500   0.60570   0.39650   Biso      1.000     C          -0.179242           
         C84       1.0000    0.84570   0.22880   0.63980   Biso      1.000     C          0.13188   
         C85       1.0000    0.82750   0.23780   0.54890   Biso      1.000     C          -0.202478           
         C86       1.0000    0.39870   0.61231   0.30590   Biso      1.000     C          0.118578  
         C87       1.0000    0.60790   0.81000   0.78840   Biso      1.000     C          -0.12776500000000002          
         C88       1.0000    0.42500   0.89430   0.89650   Biso      1.000     C          -0.179255           
         C89       1.0000    0.39870   0.88769   0.80590   Biso      1.000     C          0.11857999999999999           
         C90       1.0000    0.34970   0.94370   0.94220   Biso      1.000     C          0.088321  
         C91       1.0000    0.29280   0.93290   0.76680   Biso      1.000     C          -0.20868499999999998          
         C92       1.0000    0.29280   0.56710   0.26680   Biso      1.000     C          -0.20867800000000003          
         C93       1.0000    0.22210   0.98130   0.81820   Biso      1.000     C          0.087615  
         C94       1.0000    0.72360   0.81330   0.10540   Biso      1.000     C          0.5559189999999999  
         C95       1.0000    0.68470   0.76110   0.74060   Biso      1.000     C          -0.10978800000000001          
         C96       1.0000    0.90450   0.29080   0.50830   Biso      1.000     C          0.086675  
         Cd1       1.0000    0.13550   0.41915   0.48071   Biso      1.000     Cd          0.8680969999999999  
         Cd2       1.0000    0.13550   0.08085   0.98071   Biso      1.000     Cd          0.8680969999999999  
         Cd3       1.0000    0.86450   0.91915   0.01929   Biso      1.000     Cd          0.8680969999999999  
         Cd4       1.0000    0.86450   0.58085   0.51929   Biso      1.000     Cd          0.8680969999999999  
         H1        1.0000    0.26980   0.56940   0.20630   Biso      1.000     H          0.128456  
         H2        1.0000    0.15230   0.48860   0.29040   Biso      1.000     H          0.095498  
         H3        1.0000    0.52750   0.25420   0.43280   Biso      1.000     H          0.110319  
         H4        1.0000    0.65440   0.17270   0.35330   Biso      1.000     H          0.10419400000000001           
         H5        1.0000    0.35740   0.17430   0.15550   Biso      1.000     H          0.122177  
         H6        1.0000    0.49420   0.63500   0.42620   Biso      1.000     H          0.13613599999999998           
         H7        1.0000    0.56380   0.02530   0.79720   Biso      1.000     H          0.10943399999999999           
         H8        1.0000    0.64260   0.67430   0.34450   Biso      1.000     H          0.122177  
         H9        1.0000    0.23050   0.25630   0.23450   Biso      1.000     H          0.10867   
         H10       1.0000    0.84770   0.98860   0.20960   Biso      1.000     H          0.095498  
         H11       1.0000    0.73020   0.06940   0.29370   Biso      1.000     H          0.128456  
         H12       1.0000    0.34560   0.67270   0.14670   Biso      1.000     H          0.10419400000000001           
         H13       1.0000    0.62940   0.05290   0.99720   Biso      1.000     H          0.093749  
         H14       1.0000    0.47250   0.75420   0.06720   Biso      1.000     H          0.110319  
         H15       1.0000    0.89130   0.29530   0.44740   Biso      1.000     H          0.094954  
         H16       1.0000    0.91920   0.13610   0.77520   Biso      1.000     H          0.128281  
         H17       1.0000    0.76320   0.20780   0.51550   Biso      1.000     H          0.126844  
         H18       1.0000    0.58470   0.18810   0.61250   Biso      1.000     H          0.113294  
         H19       1.0000    0.45820   0.10020   0.68480   Biso      1.000     H          0.109328  
         H20       1.0000    0.95760   0.27210   0.74590   Biso      1.000     H          0.133742  
         H21       1.0000    0.07580   0.36060   0.67190   Biso      1.000     H          0.09450800000000001           
         H22       1.0000    0.76950   0.75630   0.26550   Biso      1.000     H          0.10867   
         H23       1.0000    0.50580   0.13500   0.07380   Biso      1.000     H          0.13613599999999998           
         H24       1.0000    0.62940   0.44710   0.49720   Biso      1.000     H          0.093749  
         H25       1.0000    0.23680   0.70780   0.98450   Biso      1.000     H          0.126844  
         H26       1.0000    0.04240   0.72790   0.25410   Biso      1.000     H          0.133742  
         H27       1.0000    0.92420   0.63940   0.32810   Biso      1.000     H          0.09450700000000001           
         H28       1.0000    0.43620   0.97470   0.20280   Biso      1.000     H          0.10943399999999999           
         H29       1.0000    0.10870   0.79530   0.05260   Biso      1.000     H          0.094954  
         H30       1.0000    0.41530   0.81190   0.38750   Biso      1.000     H          0.113294  
         H31       1.0000    0.08080   0.86390   0.22480   Biso      1.000     H          0.128281  
         H32       1.0000    0.37060   0.94710   0.00280   Biso      1.000     H          0.093748  
         H33       1.0000    0.49420   0.86500   0.92620   Biso      1.000     H          0.13613699999999998           
         H34       1.0000    0.26980   0.93060   0.70630   Biso      1.000     H          0.128456  
         H35       1.0000    0.15230   0.01140   0.79040   Biso      1.000     H          0.095497  
         H36       1.0000    0.23680   0.79220   0.48450   Biso      1.000     H          0.126844  
         H37       1.0000    0.76950   0.74370   0.76550   Biso      1.000     H          0.108669  
         H38       1.0000    0.34560   0.82730   0.64670   Biso      1.000     H          0.10419400000000001           
         H39       1.0000    0.47250   0.74580   0.56720   Biso      1.000     H          0.110319  
         H40       1.0000    0.89130   0.20470   0.94740   Biso      1.000     H          0.094954  
         H41       1.0000    0.76320   0.29220   0.01550   Biso      1.000     H          0.126844  
         H42       1.0000    0.95760   0.22790   0.24590   Biso      1.000     H          0.133743  
         H43       1.0000    0.07580   0.13940   0.17190   Biso      1.000     H          0.09450700000000001           
         H44       1.0000    0.56380   0.47470   0.29720   Biso      1.000     H          0.10943399999999999           
         H45       1.0000    0.45820   0.39980   0.18480   Biso      1.000     H          0.109328  
         H46       1.0000    0.58470   0.31190   0.11250   Biso      1.000     H          0.113294  
         H47       1.0000    0.91920   0.36390   0.27520   Biso      1.000     H          0.128281  
         H48       1.0000    0.64260   0.82570   0.84450   Biso      1.000     H          0.122177  
         H49       1.0000    0.10870   0.70470   0.55260   Biso      1.000     H          0.094954  
         H50       1.0000    0.54180   0.89980   0.31520   Biso      1.000     H          0.109328  
         H51       1.0000    0.65440   0.32730   0.85330   Biso      1.000     H          0.10419400000000001           
         H52       1.0000    0.04240   0.77210   0.75410   Biso      1.000     H          0.133742  
         H53       1.0000    0.92420   0.86060   0.82810   Biso      1.000     H          0.09450700000000001           
         H54       1.0000    0.43620   0.52530   0.70280   Biso      1.000     H          0.10943399999999999           
         H55       1.0000    0.54180   0.60020   0.81520   Biso      1.000     H          0.109328  
         H56       1.0000    0.41530   0.68810   0.88750   Biso      1.000     H          0.113294  
         H57       1.0000    0.08080   0.63610   0.72480   Biso      1.000     H          0.128281  
         H58       1.0000    0.52750   0.24580   0.93280   Biso      1.000     H          0.110319  
         H59       1.0000    0.50580   0.36500   0.57380   Biso      1.000     H          0.13613599999999998           
         H60       1.0000    0.73020   0.43060   0.79370   Biso      1.000     H          0.128456  
         H61       1.0000    0.84770   0.51140   0.70960   Biso      1.000     H          0.095498  
         H62       1.0000    0.23050   0.24370   0.73450   Biso      1.000     H          0.10867   
         H63       1.0000    0.37060   0.55290   0.50280   Biso      1.000     H          0.093749  
         H64       1.0000    0.35740   0.32570   0.65550   Biso      1.000     H          0.12217599999999999           
         N1        1.0000    0.00190   0.66348   0.44711   Biso      1.000     N          -0.223771           
         N2        1.0000    0.75220   0.48740   0.59490   Biso      1.000     N          -0.22523800000000002          
         N3        1.0000    0.99810   0.16348   0.05289   Biso      1.000     N          -0.223771           
         N4        1.0000    0.00190   0.83652   0.94711   Biso      1.000     N          -0.223771           
         N5        1.0000    0.75220   0.01260   0.09490   Biso      1.000     N          -0.22523800000000002          
         N6        1.0000    0.24780   0.98740   0.90510   Biso      1.000     N          -0.22524  
         N7        1.0000    0.24780   0.51260   0.40510   Biso      1.000     N          -0.22523800000000002          
         N8        1.0000    0.99810   0.33652   0.55289   Biso      1.000     N          -0.223771           
         O1        1.0000    0.24610   0.03452   0.10773   Biso      1.000     O          -0.5592729999999999           
         O2        1.0000    0.75390   0.53452   0.39227   Biso      1.000     O          -0.5592729999999999           
         O3        1.0000    0.67830   0.66685   0.52914   Biso      1.000     O          -0.569294           
         O4        1.0000    0.83870   0.66548   0.64016   Biso      1.000     O          -0.5797800000000001           
         O5        1.0000    0.93680   0.46188   0.40215   Biso      1.000     O          -0.587839           
         O6        1.0000    0.67830   0.83315   0.02914   Biso      1.000     O          -0.569294           
         O7        1.0000    0.83870   0.83452   0.14016   Biso      1.000     O          -0.579779           
         O8        1.0000    0.32170   0.16685   0.97086   Biso      1.000     O          -0.569294           
         O9        1.0000    0.75390   0.96548   0.89227   Biso      1.000     O          -0.5592729999999999           
         O10       1.0000    0.06320   0.53812   0.59785   Biso      1.000     O          -0.587839           
         O11       1.0000    0.16130   0.33452   0.35984   Biso      1.000     O          -0.579779           
         O12       1.0000    0.32170   0.33315   0.47086   Biso      1.000     O          -0.569294           
         O13       1.0000    0.06320   0.96188   0.09785   Biso      1.000     O          -0.587839           
         O14       1.0000    0.16130   0.16548   0.85984   Biso      1.000     O          -0.579779           
         O15       1.0000    0.93680   0.03812   0.90215   Biso      1.000     O          -0.587839           
         O16       1.0000    0.24610   0.46548   0.60773   Biso      1.000     O          -0.5592729999999999 