
##########################################################################
#               Crystallographic Information Format file
#               Produced by PyCifRW module
#
#  This is a CIF file.  CIF has been adopted by the International
#  Union of Crystallography as the standard for data archiving and
#  transmission.
#
#  For information on this file format, follow the CIF links at
#  http://www.iucr.org
##########################################################################

data_image0

_cell_length_a                          7.976
_cell_length_b                          12.006
_cell_length_c                          12.284
_cell_angle_alpha                       112.01
_cell_angle_beta                        90.05
_cell_angle_gamma                       100.58
_symmetry_space_group_name_H-M          'P 1'
_symmetry_int_tables_number             1
loop_
  _symmetry_equiv_pos_as_xyz
         'x, y, z' 
loop_
  _atom_site_label
  _atom_site_occupancy
  _atom_site_fract_x
  _atom_site_fract_y
  _atom_site_fract_z
  _atom_site_thermal_displace_type
  _atom_site_B_iso_or_equiv
  _atom_site_type_symbol
  _atom_site_charge
         C1        1.0000    0.63520   0.13980   0.02230   Biso      1.000     C          0.700421  
         C2        1.0000    0.28420   0.54450   0.98500   Biso      1.000     C          -0.321376           
         C3        1.0000    0.12260   0.17560   0.47420   Biso      1.000     C          -0.312272           
         C4        1.0000    0.13810   0.14310   0.58130   Biso      1.000     C          0.699253  
         C5        1.0000    0.32710   0.36710   0.81830   Biso      1.000     C          0.677573  
         C6        1.0000    0.23990   0.47380   0.85340   Biso      1.000     C          -0.316064           
         C7        1.0000    0.28660   0.19790   0.41930   Biso      1.000     C          -0.312244           
         C8        1.0000    0.35570   0.08220   0.36120   Biso      1.000     C          0.6924859999999999  
         C9        1.0000    0.14440   0.91820   0.79900   Biso      1.000     C          0.702667  
         C10       1.0000    0.21460   0.80410   0.77300   Biso      1.000     C          -0.32606999999999997          
         C11       1.0000    0.38470   0.82690   0.84800   Biso      1.000     C          -0.323011           
         C12       1.0000    0.36480   0.86020   0.97770   Biso      1.000     C          0.700421  
         C13       1.0000    0.81970   0.35690   0.95600   Biso      1.000     C          0.675497  
         C14       1.0000    0.71580   0.45550   0.01500   Biso      1.000     C          -0.321377           
         C15       1.0000    0.87740   0.82440   0.52580   Biso      1.000     C          -0.312271           
         C16       1.0000    0.86190   0.85690   0.41870   Biso      1.000     C          0.6992520000000001  
         C17       1.0000    0.18030   0.64310   0.04400   Biso      1.000     C          0.675496  
         C18       1.0000    0.67290   0.63290   0.18170   Biso      1.000     C          0.677574  
         C19       1.0000    0.61530   0.17310   0.15200   Biso      1.000     C          -0.32300999999999996          
         C20       1.0000    0.71340   0.80210   0.58070   Biso      1.000     C          -0.312245           
         C21       1.0000    0.76010   0.52620   0.14660   Biso      1.000     C          -0.316065           
         C22       1.0000    0.64430   0.91780   0.63880   Biso      1.000     C          0.6924859999999999  
         C23       1.0000    0.78540   0.19590   0.22700   Biso      1.000     C          -0.326072           
         C24       1.0000    0.85560   0.08180   0.20100   Biso      1.000     C          0.702667  
         H1        1.0000    0.43280   0.75350   0.81830   Biso      1.000     H          0.144681  
         H2        1.0000    0.13010   0.74360   0.78830   Biso      1.000     H          0.138173  
         H3        1.0000    0.23480   0.77090   0.69020   Biso      1.000     H          0.151749  
         H4        1.0000    0.76520   0.22910   0.30980   Biso      1.000     H          0.151749  
         H5        1.0000    0.26740   0.23170   0.36110   Biso      1.000     H          0.15243900000000002           
         H6        1.0000    0.72030   0.47450   0.18970   Biso      1.000     H          0.14505099999999999           
         H7        1.0000    0.46550   0.89250   0.83760   Biso      1.000     H          0.14585599999999999           
         H8        1.0000    0.11710   0.44590   0.83690   Biso      1.000     H          0.147592  
         H9        1.0000    0.27970   0.52550   0.81030   Biso      1.000     H          0.14505   
         H10       1.0000    0.56720   0.24650   0.18170   Biso      1.000     H          0.144681  
         H11       1.0000    0.53450   0.10750   0.16240   Biso      1.000     H          0.14585599999999999           
         H12       1.0000    0.04300   0.10950   0.41510   Biso      1.000     H          0.141965  
         H13       1.0000    0.07370   0.24860   0.49670   Biso      1.000     H          0.14013599999999998           
         H14       1.0000    0.26790   0.48670   0.02380   Biso      1.000     H          0.153585  
         H15       1.0000    0.37100   0.25790   0.47950   Biso      1.000     H          0.137577  
         H16       1.0000    0.86990   0.25640   0.21170   Biso      1.000     H          0.138173  
         H17       1.0000    0.73260   0.76830   0.63890   Biso      1.000     H          0.15244000000000002           
         H18       1.0000    0.95700   0.89050   0.58490   Biso      1.000     H          0.141965  
         H19       1.0000    0.92630   0.75140   0.50330   Biso      1.000     H          0.14013599999999998           
         H20       1.0000    0.88290   0.55410   0.16310   Biso      1.000     H          0.147592  
         H21       1.0000    0.73210   0.51330   0.97620   Biso      1.000     H          0.153585  
         H22       1.0000    0.59550   0.41700   0.00260   Biso      1.000     H          0.135035  
         H23       1.0000    0.40450   0.58300   0.99740   Biso      1.000     H          0.135035  
         H24       1.0000    0.62900   0.74210   0.52050   Biso      1.000     H          0.137577  
         La1       1.0000    0.00888   0.85692   0.14682   Biso      1.000     La          1.9350180000000001  
         La2       1.0000    0.50867   0.85707   0.24971   Biso      1.000     La          1.940921  
         La3       1.0000    0.99112   0.14308   0.85318   Biso      1.000     La          1.9350180000000001  
         La4       1.0000    0.49133   0.14293   0.75029   Biso      1.000     La          1.940921  
         O1        1.0000    0.01720   0.15270   0.64980   Biso      1.000     O          -0.651366           
         O2        1.0000    0.23230   0.89860   0.02020   Biso      1.000     O          -0.655745           
         O3        1.0000    0.48420   0.85020   0.03820   Biso      1.000     O          -0.645185           
         O4        1.0000    0.45230   0.36050   0.75610   Biso      1.000     O          -0.5849270000000001           
         O5        1.0000    0.99010   0.92090   0.82450   Biso      1.000     O          -0.624282           
         O6        1.0000    0.23350   0.01280   0.79130   Biso      1.000     O          -0.69505  
         O7        1.0000    0.05100   0.64490   0.98940   Biso      1.000     O          -0.566441           
         O8        1.0000    0.22860   0.72210   0.14960   Biso      1.000     O          -0.719318           
         O9        1.0000    0.26900   0.10370   0.59490   Biso      1.000     O          -0.648402           
         O10       1.0000    0.27280   0.27830   0.85550   Biso      1.000     O          -0.7371989999999999           
         O11       1.0000    0.48880   0.91960   0.61620   Biso      1.000     O          -0.621113           
         O12       1.0000    0.73520   0.01380   0.71620   Biso      1.000     O          -0.697609           
         O13       1.0000    0.73100   0.89630   0.40510   Biso      1.000     O          -0.648402           
         O14       1.0000    0.98280   0.84730   0.35020   Biso      1.000     O          -0.651366           
         O15       1.0000    0.76770   0.10140   0.97980   Biso      1.000     O          -0.655745           
         O16       1.0000    0.51580   0.14980   0.96180   Biso      1.000     O          -0.645185           
         O17       1.0000    0.72720   0.72170   0.14450   Biso      1.000     O          -0.7371989999999999           
         O18       1.0000    0.54770   0.63950   0.24390   Biso      1.000     O          -0.5849270000000001           
         O19       1.0000    0.00990   0.07910   0.17550   Biso      1.000     O          -0.624282           
         O20       1.0000    0.76650   0.98720   0.20870   Biso      1.000     O          -0.69505  
         O21       1.0000    0.94900   0.35510   0.01060   Biso      1.000     O          -0.566441           
         O22       1.0000    0.77140   0.27790   0.85040   Biso      1.000     O          -0.719318           
         O23       1.0000    0.26480   0.98620   0.28380   Biso      1.000     O          -0.697609           
         O24       1.0000    0.51120   0.08040   0.38380   Biso      1.000     O          -0.621112 