
##########################################################################
#               Crystallographic Information Format file
#               Produced by PyCifRW module
#
#  This is a CIF file.  CIF has been adopted by the International
#  Union of Crystallography as the standard for data archiving and
#  transmission.
#
#  For information on this file format, follow the CIF links at
#  http://www.iucr.org
##########################################################################

data_image0

_cell_length_a                          9.349
_cell_length_b                          10.441
_cell_length_c                          12.177
_cell_angle_alpha                       109.956
_cell_angle_beta                        103.388
_cell_angle_gamma                       90.275
_symmetry_space_group_name_H-M          'P 1'
_symmetry_int_tables_number             1
loop_
  _symmetry_equiv_pos_as_xyz
         'x, y, z' 
loop_
  _atom_site_label
  _atom_site_occupancy
  _atom_site_fract_x
  _atom_site_fract_y
  _atom_site_fract_z
  _atom_site_thermal_displace_type
  _atom_site_B_iso_or_equiv
  _atom_site_type_symbol
  _atom_site_charge
         C1        1.0000    0.40738   0.34913   0.05144   Biso      1.000     C          0.106495  
         C2        1.0000    0.48786   0.17313   0.41128   Biso      1.000     C          0.620525  
         C3        1.0000    0.23270   0.25750   0.84622   Biso      1.000     C          -0.178615           
         C4        1.0000    0.37729   0.29137   0.91741   Biso      1.000     C          0.097706  
         C5        1.0000    0.48950   0.26535   0.85783   Biso      1.000     C          -0.18755  
         C6        1.0000    0.45572   0.20698   0.73361   Biso      1.000     C          0.114765  
         C7        1.0000    0.29490   0.34860   0.10963   Biso      1.000     C          -0.17445  
         C8        1.0000    0.32610   0.39450   0.23326   Biso      1.000     C          0.12091099999999999           
         C9        1.0000    0.56790   0.44782   0.24977   Biso      1.000     C          0.105959  
         C10       1.0000    0.54490   0.40068   0.12524   Biso      1.000     C          -0.184452           
         C11       1.0000    0.15305   0.84022   0.68497   Biso      1.000     C          -0.017862           
         C12       1.0000    0.25160   0.82679   0.61192   Biso      1.000     C          -0.08936000000000001          
         C13       1.0000    0.40321   0.85077   0.66576   Biso      1.000     C          -0.074732           
         C14       1.0000    0.45502   0.89505   0.79106   Biso      1.000     C          -0.14116900000000002          
         C15       1.0000    0.80479   0.21360   0.52320   Biso      1.000     C          0.594083  
         C16       1.0000    0.35602   0.90565   0.86184   Biso      1.000     C          -0.113429           
         C17       1.0000    0.98836   0.82324   0.63385   Biso      1.000     C          0.60012   
         C18       1.0000    0.19521   0.78640   0.47680   Biso      1.000     C          0.5940840000000001  
         C19       1.0000    0.51214   0.82687   0.58872   Biso      1.000     C          0.620526  
         C20       1.0000    0.79300   0.80140   0.27794   Biso      1.000     C          0.129005  
         C21       1.0000    0.76730   0.74250   0.15378   Biso      1.000     C          -0.17861400000000002          
         C22       1.0000    0.62271   0.70863   0.08259   Biso      1.000     C          0.097707  
         C23       1.0000    0.51050   0.73465   0.14217   Biso      1.000     C          -0.18755  
         C24       1.0000    0.54428   0.79302   0.26639   Biso      1.000     C          0.114764  
         C25       1.0000    0.59262   0.65087   0.94856   Biso      1.000     C          0.106494  
         C26       1.0000    0.70510   0.65140   0.89037   Biso      1.000     C          -0.17445  
         C27       1.0000    0.67390   0.60550   0.76674   Biso      1.000     C          0.12091099999999999           
         C28       1.0000    0.43210   0.55218   0.75023   Biso      1.000     C          0.105959  
         C29       1.0000    0.45510   0.59932   0.87476   Biso      1.000     C          -0.184453           
         C30       1.0000    0.20595   0.87703   0.80994   Biso      1.000     C          -0.130896           
         C31       1.0000    0.01164   0.17676   0.36615   Biso      1.000     C          0.600119  
         C32       1.0000    0.20700   0.19860   0.72206   Biso      1.000     C          0.12900599999999998           
         C33       1.0000    0.64398   0.09435   0.13816   Biso      1.000     C          -0.11343199999999999          
         C34       1.0000    0.54498   0.10495   0.20894   Biso      1.000     C          -0.14116700000000001          
         C35       1.0000    0.59679   0.14923   0.33424   Biso      1.000     C          -0.074732           
         C36       1.0000    0.74840   0.17321   0.38808   Biso      1.000     C          -0.08935900000000001          
         C37       1.0000    0.84695   0.15978   0.31503   Biso      1.000     C          -0.01786  
         C38       1.0000    0.79405   0.12297   0.19006   Biso      1.000     C          -0.130896           
         H1        1.0000    0.66220   0.48390   0.29690   Biso      1.000     H          0.112667  
         H2        1.0000    0.24910   0.39120   0.26900   Biso      1.000     H          0.116121  
         H3        1.0000    0.19870   0.31700   0.06440   Biso      1.000     H          0.137019  
         H4        1.0000    0.53260   0.19120   0.69530   Biso      1.000     H          0.110174  
         H5        1.0000    0.11000   0.17650   0.67600   Biso      1.000     H          0.11715   
         H6        1.0000    0.15380   0.27440   0.88210   Biso      1.000     H          0.134187  
         H7        1.0000    0.85960   0.11780   0.14200   Biso      1.000     H          0.117934  
         H8        1.0000    0.60920   0.06770   0.05490   Biso      1.000     H          0.101502  
         H9        1.0000    0.44450   0.08270   0.17320   Biso      1.000     H          0.11274400000000001           
         H10       1.0000    0.58760   0.28720   0.90150   Biso      1.000     H          0.135285  
         H11       1.0000    0.55550   0.91730   0.82680   Biso      1.000     H          0.11274400000000001           
         H12       1.0000    0.62370   0.40410   0.09150   Biso      1.000     H          0.13031500000000001           
         H13       1.0000    0.14040   0.88220   0.85800   Biso      1.000     H          0.117933  
         H14       1.0000    0.39080   0.93230   0.94510   Biso      1.000     H          0.101501  
         H15       1.0000    0.33780   0.51610   0.70310   Biso      1.000     H          0.112667  
         H16       1.0000    0.75090   0.60880   0.73100   Biso      1.000     H          0.116121  
         H17       1.0000    0.80130   0.68300   0.93560   Biso      1.000     H          0.137019  
         H18       1.0000    0.37630   0.59590   0.90850   Biso      1.000     H          0.13031500000000001           
         H19       1.0000    0.41240   0.71280   0.09850   Biso      1.000     H          0.135284  
         H20       1.0000    0.84620   0.72560   0.11790   Biso      1.000     H          0.134186  
         H21       1.0000    0.89000   0.82350   0.32400   Biso      1.000     H          0.11715   
         H22       1.0000    0.46740   0.80880   0.30470   Biso      1.000     H          0.110175  
         N1        1.0000    0.31648   0.17215   0.66585   Biso      1.000     N          -0.225257           
         N2        1.0000    0.46049   0.44390   0.30562   Biso      1.000     N          -0.221243           
         N3        1.0000    0.68352   0.82785   0.33415   Biso      1.000     N          -0.225257           
         N4        1.0000    0.53951   0.55610   0.69438   Biso      1.000     N          -0.221243           
         O1        1.0000    0.90983   0.75501   0.66648   Biso      1.000     O          -0.588022           
         O2        1.0000    0.40121   0.06933   0.39190   Biso      1.000     O          -0.516954           
         O3        1.0000    0.12768   0.67181   0.41844   Biso      1.000     O          -0.568555           
         O4        1.0000    0.22311   0.87090   0.42931   Biso      1.000     O          -0.582693           
         O5        1.0000    0.94302   0.88715   0.56242   Biso      1.000     O          -0.565816           
         O6        1.0000    0.48617   0.28799   0.48733   Biso      1.000     O          -0.590651           
         O7        1.0000    0.59879   0.93067   0.60810   Biso      1.000     O          -0.516954           
         O8        1.0000    0.87232   0.32819   0.58156   Biso      1.000     O          -0.568555           
         O9        1.0000    0.09017   0.24499   0.33352   Biso      1.000     O          -0.588021           
         O10       1.0000    0.05698   0.11285   0.43758   Biso      1.000     O          -0.565816           
         O11       1.0000    0.51383   0.71201   0.51267   Biso      1.000     O          -0.59065  
         O12       1.0000    0.77689   0.12910   0.57069   Biso      1.000     O          -0.582693           
         Zn1       1.0000    0.50000   0.50000   0.50000   Biso      1.000     Zn          0.945466  
         Zn2       1.0000    0.73945   0.92692   0.51344   Biso      1.000     Zn          0.8643049999999999  
         Zn3       1.0000    0.26055   0.07308   0.48656   Biso      1.000     Zn          0.8643049999999999 