
##########################################################################
#               Crystallographic Information Format file
#               Produced by PyCifRW module
#
#  This is a CIF file.  CIF has been adopted by the International
#  Union of Crystallography as the standard for data archiving and
#  transmission.
#
#  For information on this file format, follow the CIF links at
#  http://www.iucr.org
##########################################################################

data_image0

_cell_length_a                          9.955
_cell_length_b                          12.795
_cell_length_c                          13.801
_cell_angle_alpha                       69.415
_cell_angle_beta                        82.562
_cell_angle_gamma                       83.117
_symmetry_space_group_name_H-M          'P 1'
_symmetry_int_tables_number             1
loop_
  _symmetry_equiv_pos_as_xyz
         'x, y, z' 
loop_
  _atom_site_label
  _atom_site_occupancy
  _atom_site_fract_x
  _atom_site_fract_y
  _atom_site_fract_z
  _atom_site_thermal_displace_type
  _atom_site_B_iso_or_equiv
  _atom_site_type_symbol
  _atom_site_charge
         C1        1.0000    0.60010   0.92380   0.55330   Biso      1.000     C          0.085918  
         C2        1.0000    0.74090   0.84690   0.04440   Biso      1.000     C          -0.519093           
         C3        1.0000    0.61460   0.92570   0.02110   Biso      1.000     C          0.095136  
         C4        1.0000    0.26390   0.96860   0.14990   Biso      1.000     C          -0.512159           
         C5        1.0000    0.38670   0.98550   0.07340   Biso      1.000     C          0.10044   
         C6        1.0000    0.50210   0.91320   0.09200   Biso      1.000     C          -0.150587           
         C7        1.0000    0.50490   0.81710   0.19430   Biso      1.000     C          0.651355  
         C8        1.0000    0.52530   0.23550   0.44400   Biso      1.000     C          0.691739  
         C9        1.0000    0.09740   0.61440   0.62240   Biso      1.000     C          -0.5166569999999999           
         C10       1.0000    0.17930   0.46160   0.33100   Biso      1.000     C          -0.516614           
         C11       1.0000    0.08520   0.48020   0.41830   Biso      1.000     C          0.101316  
         C12       1.0000    0.12830   0.53440   0.47800   Biso      1.000     C          -0.18683  
         C13       1.0000    0.26890   0.57320   0.45160   Biso      1.000     C          0.6921930000000001  
         C14       1.0000    0.70620   0.84020   0.61270   Biso      1.000     C          -0.513286           
         C15       1.0000    0.27050   0.91940   0.44710   Biso      1.000     C          -0.516092           
         C16       1.0000    0.04600   0.55530   0.55990   Biso      1.000     C          0.087639  
         C17       1.0000    0.38830   0.96250   0.47350   Biso      1.000     C          0.101977  
         C18       1.0000    0.51140   0.11170   0.47380   Biso      1.000     C          -0.16881600000000002          
         C19       1.0000    0.72950   0.08060   0.55290   Biso      1.000     C          -0.516093           
         C20       1.0000    0.25910   0.15310   0.95560   Biso      1.000     C          -0.519093           
         C21       1.0000    0.38540   0.07430   0.97890   Biso      1.000     C          0.095136  
         C22       1.0000    0.73610   0.03140   0.85010   Biso      1.000     C          -0.512159           
         C23       1.0000    0.61330   0.01450   0.92660   Biso      1.000     C          0.10044   
         C24       1.0000    0.49790   0.08680   0.90800   Biso      1.000     C          -0.150587           
         C25       1.0000    0.49510   0.18290   0.80570   Biso      1.000     C          0.651355  
         C26       1.0000    0.61170   0.03750   0.52650   Biso      1.000     C          0.101979  
         C27       1.0000    0.90260   0.38560   0.37760   Biso      1.000     C          -0.5166569999999999           
         C28       1.0000    0.82070   0.53840   0.66900   Biso      1.000     C          -0.516614           
         C29       1.0000    0.91480   0.51980   0.58170   Biso      1.000     C          0.10131699999999999           
         C30       1.0000    0.87170   0.46560   0.52200   Biso      1.000     C          -0.18683  
         C31       1.0000    0.73110   0.42680   0.54840   Biso      1.000     C          0.6921930000000001  
         C32       1.0000    0.29380   0.15980   0.38730   Biso      1.000     C          -0.513286           
         C33       1.0000    0.39990   0.07620   0.44670   Biso      1.000     C          0.085918  
         C34       1.0000    0.95400   0.44470   0.44010   Biso      1.000     C          0.087639  
         C35       1.0000    0.48860   0.88830   0.52620   Biso      1.000     C          -0.16881400000000002          
         C36       1.0000    0.47470   0.76450   0.55600   Biso      1.000     C          0.691738  
         H1        1.0000    0.22510   0.14950   0.89490   Biso      1.000     H          0.15995299999999998           
         H2        1.0000    0.80890   0.86830   0.98650   Biso      1.000     H          0.1653    
         H3        1.0000    0.28030   0.90300   0.20920   Biso      1.000     H          0.170924  
         H4        1.0000    0.18740   0.95990   0.11830   Biso      1.000     H          0.164616  
         H5        1.0000    0.24490   0.03290   0.17150   Biso      1.000     H          0.167879  
         H6        1.0000    0.04070   0.68220   0.61670   Biso      1.000     H          0.17965799999999998           
         H7        1.0000    0.18910   0.63230   0.59660   Biso      1.000     H          0.166626  
         H8        1.0000    0.09500   0.56690   0.69400   Biso      1.000     H          0.169147  
         H9        1.0000    0.19110   0.13170   0.01350   Biso      1.000     H          0.1653    
         H10       1.0000    0.25970   0.41730   0.35800   Biso      1.000     H          0.17235999999999999           
         H11       1.0000    0.13460   0.42310   0.29740   Biso      1.000     H          0.172781  
         H12       1.0000    0.79300   0.85120   0.57270   Biso      1.000     H          0.15723900000000002           
         H13       1.0000    0.68250   0.76570   0.62550   Biso      1.000     H          0.157894  
         H14       1.0000    0.71080   0.85060   0.67780   Biso      1.000     H          0.164134  
         H15       1.0000    0.22290   0.87360   0.50990   Biso      1.000     H          0.163977  
         H16       1.0000    0.30220   0.87560   0.40350   Biso      1.000     H          0.165221  
         H17       1.0000    0.21020   0.98140   0.41110   Biso      1.000     H          0.157415  
         H18       1.0000    0.20370   0.53250   0.28170   Biso      1.000     H          0.175913  
         H19       1.0000    0.71940   0.77180   0.05700   Biso      1.000     H          0.16701400000000002           
         H20       1.0000    0.77490   0.85050   0.10510   Biso      1.000     H          0.15995299999999998           
         H21       1.0000    0.69780   0.12440   0.59650   Biso      1.000     H          0.165221  
         H22       1.0000    0.28060   0.22820   0.94300   Biso      1.000     H          0.16701400000000002           
         H23       1.0000    0.71970   0.09700   0.79080   Biso      1.000     H          0.170924  
         H24       1.0000    0.81260   0.04010   0.88170   Biso      1.000     H          0.164616  
         H25       1.0000    0.75510   0.96710   0.82850   Biso      1.000     H          0.167878  
         H26       1.0000    0.78980   0.01860   0.58890   Biso      1.000     H          0.157415  
         H27       1.0000    0.81090   0.36770   0.40340   Biso      1.000     H          0.166626  
         H28       1.0000    0.90500   0.43310   0.30600   Biso      1.000     H          0.169147  
         H29       1.0000    0.95930   0.31780   0.38330   Biso      1.000     H          0.17965799999999998           
         H30       1.0000    0.79630   0.46750   0.71830   Biso      1.000     H          0.175913  
         H31       1.0000    0.86540   0.57690   0.70260   Biso      1.000     H          0.172782  
         H32       1.0000    0.20700   0.14880   0.42730   Biso      1.000     H          0.15723900000000002           
         H33       1.0000    0.31750   0.23430   0.37450   Biso      1.000     H          0.157894  
         H34       1.0000    0.28920   0.14940   0.32220   Biso      1.000     H          0.164134  
         H35       1.0000    0.77710   0.12640   0.49010   Biso      1.000     H          0.163977  
         H36       1.0000    0.74030   0.58270   0.64200   Biso      1.000     H          0.17235999999999999           
         O1        1.0000    0.70990   0.33590   0.61770   Biso      1.000     O          -0.577986           
         O2        1.0000    0.50480   0.71990   0.19610   Biso      1.000     O          -0.696475           
         O3        1.0000    0.63310   0.48670   0.50320   Biso      1.000     O          -0.806704           
         O4        1.0000    0.58810   0.28460   0.36070   Biso      1.000     O          -0.575063           
         O5        1.0000    0.47090   0.28470   0.50540   Biso      1.000     O          -0.7814770000000001           
         O6        1.0000    0.50780   0.83640   0.27640   Biso      1.000     O          -0.641878           
         O7        1.0000    0.49520   0.28010   0.80390   Biso      1.000     O          -0.696475           
         O8        1.0000    0.29010   0.66410   0.38230   Biso      1.000     O          -0.577986           
         O9        1.0000    0.41190   0.71540   0.63930   Biso      1.000     O          -0.575063           
         O10       1.0000    0.52910   0.71530   0.49460   Biso      1.000     O          -0.7814770000000001           
         O11       1.0000    0.49220   0.16360   0.72360   Biso      1.000     O          -0.641878           
         O12       1.0000    0.36690   0.51330   0.49680   Biso      1.000     O          -0.806704           
         Tm1       1.0000    0.46982   0.35965   0.62522   Biso      1.000     Tm          2.0739490000000003  
         Tm2       1.0000    0.53018   0.64035   0.37478   Biso      1.000     Tm          2.07395 