
##########################################################################
#               Crystallographic Information Format file
#               Produced by PyCifRW module
#
#  This is a CIF file.  CIF has been adopted by the International
#  Union of Crystallography as the standard for data archiving and
#  transmission.
#
#  For information on this file format, follow the CIF links at
#  http://www.iucr.org
##########################################################################

data_image0

_cell_length_a                          8.6514
_cell_length_b                          10.1531
_cell_length_c                          11.1703
_cell_angle_alpha                       65.437
_cell_angle_beta                        71.666
_cell_angle_gamma                       78.421
_symmetry_space_group_name_H-M          'P 1'
_symmetry_int_tables_number             1
loop_
  _symmetry_equiv_pos_as_xyz
         'x, y, z' 
loop_
  _atom_site_label
  _atom_site_occupancy
  _atom_site_fract_x
  _atom_site_fract_y
  _atom_site_fract_z
  _atom_site_thermal_displace_type
  _atom_site_B_iso_or_equiv
  _atom_site_type_symbol
  _atom_site_charge
         C1        1.0000    0.95510   0.86920   0.60800   Biso      1.000     C          -0.121151           
         C2        1.0000    0.92990   0.76610   0.44760   Biso      1.000     C          0.639189  
         C3        1.0000    0.96610   0.88600   0.47640   Biso      1.000     C          -0.018956           
         C4        1.0000    0.01200   0.01650   0.36810   Biso      1.000     C          -0.086941           
         C5        1.0000    0.67420   0.76860   0.17910   Biso      1.000     C          0.609144  
         C6        1.0000    0.58190   0.88820   0.08900   Biso      1.000     C          -0.000807           
         C7        1.0000    0.42070   0.93260   0.13560   Biso      1.000     C          -0.093921           
         C8        1.0000    0.66070   0.95780   0.95190   Biso      1.000     C          -0.100052           
         C9        1.0000    0.17980   0.53850   0.16910   Biso      1.000     C          0.608364  
         C10       1.0000    0.34580   0.51710   0.08260   Biso      1.000     C          -0.006915           
         C11       1.0000    0.47390   0.58710   0.07340   Biso      1.000     C          -0.113324           
         C12       1.0000    0.37210   0.42920   0.00910   Biso      1.000     C          -0.108621           
         C13       1.0000    0.07010   0.23390   0.55240   Biso      1.000     C          0.639188  
         C14       1.0000    0.03390   0.11400   0.52360   Biso      1.000     C          -0.01896  
         C15       1.0000    0.04490   0.13080   0.39200   Biso      1.000     C          -0.121144           
         C16       1.0000    0.98800   0.98350   0.63190   Biso      1.000     C          -0.086938           
         C17       1.0000    0.62790   0.57080   0.99090   Biso      1.000     C          -0.108619           
         C18       1.0000    0.65420   0.48290   0.91740   Biso      1.000     C          -0.006916           
         C19       1.0000    0.52610   0.41290   0.92660   Biso      1.000     C          -0.113324           
         C20       1.0000    0.33930   0.04220   0.04810   Biso      1.000     C          -0.100048           
         C21       1.0000    0.57930   0.06740   0.86440   Biso      1.000     C          -0.093919           
         C22       1.0000    0.41810   0.11180   0.91100   Biso      1.000     C          -0.000804           
         C23       1.0000    0.32580   0.23140   0.82090   Biso      1.000     C          0.609144  
         C24       1.0000    0.82020   0.46150   0.83090   Biso      1.000     C          0.608364  
         H1        1.0000    0.63360   0.11180   0.77310   Biso      1.000     H          0.115339  
         H2        1.0000    0.23030   0.07020   0.08110   Biso      1.000     H          0.120164  
         H3        1.0000    0.54390   0.35450   0.87690   Biso      1.000     H          0.111323  
         H4        1.0000    0.71320   0.61830   0.98470   Biso      1.000     H          0.122529  
         H5        1.0000    0.92590   0.78210   0.68010   Biso      1.000     H          0.124403  
         H6        1.0000    0.02070   0.02710   0.27950   Biso      1.000     H          0.129543  
         H7        1.0000    0.36640   0.88820   0.22690   Biso      1.000     H          0.115339  
         H8        1.0000    0.45610   0.64550   0.12310   Biso      1.000     H          0.111323  
         H9        1.0000    0.28680   0.38170   0.01530   Biso      1.000     H          0.12253   
         H10       1.0000    0.07410   0.21790   0.31990   Biso      1.000     H          0.124403  
         H11       1.0000    0.97930   0.97290   0.72050   Biso      1.000     H          0.129542  
         H12       1.0000    0.76970   0.92980   0.91890   Biso      1.000     H          0.120165  
         O1        1.0000    0.15670   0.61870   0.23630   Biso      1.000     O          -0.634327           
         O2        1.0000    0.86800   0.79940   0.35000   Biso      1.000     O          -0.575943           
         O3        1.0000    0.06450   0.47640   0.17490   Biso      1.000     O          -0.636841           
         O4        1.0000    0.82130   0.73440   0.13150   Biso      1.000     O          -0.613681           
         O5        1.0000    0.60220   0.70110   0.30390   Biso      1.000     O          -0.712744           
         O6        1.0000    0.96230   0.63430   0.51890   Biso      1.000     O          -0.77808  
         O7        1.0000    0.13200   0.20060   0.65000   Biso      1.000     O          -0.575943           
         O8        1.0000    0.84330   0.38130   0.76370   Biso      1.000     O          -0.634327           
         O9        1.0000    0.17870   0.26560   0.86850   Biso      1.000     O          -0.61368  
         O10       1.0000    0.39780   0.29890   0.69610   Biso      1.000     O          -0.712744           
         O11       1.0000    0.03770   0.36570   0.48110   Biso      1.000     O          -0.77808  
         O12       1.0000    0.93550   0.52360   0.82510   Biso      1.000     O          -0.636841           
         Tm1       1.0000    0.86789   0.55973   0.34722   Biso      1.000     Tm          2.022295  
         Tm2       1.0000    0.13211   0.44027   0.65278   Biso      1.000     Tm          2.022294 