
##########################################################################
#               Crystallographic Information Format file
#               Produced by PyCifRW module
#
#  This is a CIF file.  CIF has been adopted by the International
#  Union of Crystallography as the standard for data archiving and
#  transmission.
#
#  For information on this file format, follow the CIF links at
#  http://www.iucr.org
##########################################################################

data_image0

_cell_length_a                          8.6514
_cell_length_b                          10.1531
_cell_length_c                          11.1703
_cell_angle_alpha                       65.437
_cell_angle_beta                        71.666
_cell_angle_gamma                       78.421
_symmetry_space_group_name_H-M          'P 1'
_symmetry_int_tables_number             1
loop_
  _symmetry_equiv_pos_as_xyz
         'x, y, z' 
loop_
  _atom_site_label
  _atom_site_occupancy
  _atom_site_fract_x
  _atom_site_fract_y
  _atom_site_fract_z
  _atom_site_thermal_displace_type
  _atom_site_B_iso_or_equiv
  _atom_site_type_symbol
  _atom_site_charge
         C1        1.0000    0.95520   0.86920   0.60800   Biso      1.000     C          -0.11879200000000001          
         C2        1.0000    0.93020   0.76680   0.44730   Biso      1.000     C          0.641648  
         C3        1.0000    0.96670   0.88560   0.47590   Biso      1.000     C          -0.021393000000000002         
         C4        1.0000    0.01170   0.01620   0.36810   Biso      1.000     C          -0.085852           
         C5        1.0000    0.67340   0.76840   0.17960   Biso      1.000     C          0.608205  
         C6        1.0000    0.58170   0.88800   0.08940   Biso      1.000     C          -0.003474           
         C7        1.0000    0.42070   0.93270   0.13600   Biso      1.000     C          -0.091988           
         C8        1.0000    0.66100   0.95700   0.95180   Biso      1.000     C          -0.09790700000000001          
         C9        1.0000    0.17970   0.53840   0.16880   Biso      1.000     C          0.607312  
         C10       1.0000    0.34600   0.51720   0.08260   Biso      1.000     C          -0.00809  
         C11       1.0000    0.47390   0.58720   0.07370   Biso      1.000     C          -0.10836400000000002          
         C12       1.0000    0.37200   0.42940   0.00870   Biso      1.000     C          -0.10961300000000002          
         C13       1.0000    0.06980   0.23320   0.55270   Biso      1.000     C          0.641648  
         C14       1.0000    0.03330   0.11440   0.52410   Biso      1.000     C          -0.021394999999999997         
         C15       1.0000    0.04480   0.13080   0.39200   Biso      1.000     C          -0.118788           
         C16       1.0000    0.98830   0.98380   0.63190   Biso      1.000     C          -0.08585  
         C17       1.0000    0.62800   0.57060   0.99130   Biso      1.000     C          -0.10961099999999999          
         C18       1.0000    0.65400   0.48280   0.91740   Biso      1.000     C          -0.008091           
         C19       1.0000    0.52610   0.41280   0.92630   Biso      1.000     C          -0.10836400000000002          
         C20       1.0000    0.33900   0.04300   0.04820   Biso      1.000     C          -0.09790399999999999          
         C21       1.0000    0.57930   0.06730   0.86400   Biso      1.000     C          -0.091987           
         C22       1.0000    0.41830   0.11200   0.91060   Biso      1.000     C          -0.003472           
         C23       1.0000    0.32660   0.23160   0.82040   Biso      1.000     C          0.608205  
         C24       1.0000    0.82030   0.46160   0.83120   Biso      1.000     C          0.6073109999999999  
         H1        1.0000    0.63470   0.11250   0.77080   Biso      1.000     H          0.113951  
         H2        1.0000    0.22800   0.07210   0.08180   Biso      1.000     H          0.119157  
         H3        1.0000    0.54430   0.35310   0.87560   Biso      1.000     H          0.10924400000000001           
         H4        1.0000    0.71530   0.61880   0.98520   Biso      1.000     H          0.12209400000000001           
         H5        1.0000    0.92500   0.78040   0.68190   Biso      1.000     H          0.12395999999999999           
         H6        1.0000    0.01990   0.02730   0.27770   Biso      1.000     H          0.129646  
         H7        1.0000    0.36530   0.88750   0.22920   Biso      1.000     H          0.113951  
         H8        1.0000    0.45570   0.64690   0.12440   Biso      1.000     H          0.10924400000000001           
         H9        1.0000    0.28470   0.38120   0.01480   Biso      1.000     H          0.12209400000000001           
         H10       1.0000    0.07500   0.21960   0.31810   Biso      1.000     H          0.12395999999999999           
         H11       1.0000    0.98010   0.97270   0.72230   Biso      1.000     H          0.129646  
         H12       1.0000    0.77200   0.92790   0.91820   Biso      1.000     H          0.11915799999999999           
         O1        1.0000    0.15680   0.61870   0.23640   Biso      1.000     O          -0.636004           
         O2        1.0000    0.86840   0.79950   0.34980   Biso      1.000     O          -0.5753659999999999           
         O3        1.0000    0.06470   0.47610   0.17500   Biso      1.000     O          -0.6344989999999999           
         O4        1.0000    0.82120   0.73450   0.13120   Biso      1.000     O          -0.616518           
         O5        1.0000    0.60170   0.70110   0.30400   Biso      1.000     O          -0.708432           
         O6        1.0000    0.96210   0.63430   0.51870   Biso      1.000     O          -0.780792           
         O7        1.0000    0.13160   0.20050   0.65020   Biso      1.000     O          -0.5753659999999999           
         O8        1.0000    0.84320   0.38130   0.76360   Biso      1.000     O          -0.636004           
         O9        1.0000    0.17880   0.26550   0.86880   Biso      1.000     O          -0.616518           
         O10       1.0000    0.39830   0.29890   0.69600   Biso      1.000     O          -0.708432           
         O11       1.0000    0.03790   0.36570   0.48130   Biso      1.000     O          -0.780792           
         O12       1.0000    0.93530   0.52390   0.82500   Biso      1.000     O          -0.6344989999999999           
         Tm1       1.0000    0.86787   0.55972   0.34724   Biso      1.000     Tm          2.021863  
         Tm2       1.0000    0.13213   0.44028   0.65276   Biso      1.000     Tm          2.021862 