
##########################################################################
#               Crystallographic Information Format file
#               Produced by PyCifRW module
#
#  This is a CIF file.  CIF has been adopted by the International
#  Union of Crystallography as the standard for data archiving and
#  transmission.
#
#  For information on this file format, follow the CIF links at
#  http://www.iucr.org
##########################################################################

data_image0

_cell_length_a                          10.7882
_cell_length_b                          12.3072
_cell_length_c                          14.2893
_cell_angle_alpha                       83.183
_cell_angle_beta                        69.59
_cell_angle_gamma                       65.174
_symmetry_space_group_name_H-M          'P 1'
_symmetry_int_tables_number             1
loop_
  _symmetry_equiv_pos_as_xyz
         'x, y, z' 
loop_
  _atom_site_label
  _atom_site_occupancy
  _atom_site_fract_x
  _atom_site_fract_y
  _atom_site_fract_z
  _atom_site_thermal_displace_type
  _atom_site_B_iso_or_equiv
  _atom_site_type_symbol
  _atom_site_charge
         C1        1.0000    0.32790   0.37180   0.75670   Biso      1.000     C          0.118173  
         C2        1.0000    0.84250   0.32580   0.96390   Biso      1.000     C          0.598735  
         C3        1.0000    0.09780   0.39950   0.23480   Biso      1.000     C          0.104465  
         C4        1.0000    0.27030   0.59080   0.67360   Biso      1.000     C          -0.199536           
         C5        1.0000    0.36860   0.45970   0.36460   Biso      1.000     C          0.183802  
         C6        1.0000    0.16020   0.21950   0.31130   Biso      1.000     C          0.120194  
         C7        1.0000    0.85470   0.02360   0.16800   Biso      1.000     C          -0.118331           
         C8        1.0000    0.31720   0.49360   0.61560   Biso      1.000     C          0.185649  
         C9        1.0000    0.05090   0.45940   0.32270   Biso      1.000     C          -0.205772           
         C10       1.0000    0.06210   0.08220   0.12300   Biso      1.000     C          0.574057  
         C11       1.0000    0.11730   0.27200   0.39950   Biso      1.000     C          -0.181914           
         C12       1.0000    0.06070   0.39470   0.40690   Biso      1.000     C          0.217041  
         C13       1.0000    0.80180   0.94350   0.16940   Biso      1.000     C          -0.056265           
         C14       1.0000    0.25430   0.57350   0.77150   Biso      1.000     C          0.114706  
         C15       1.0000    0.00490   0.99290   0.12660   Biso      1.000     C          -0.018634           
         C16       1.0000    0.10300   0.87740   0.08500   Biso      1.000     C          -0.138866           
         C17       1.0000    0.89730   0.82980   0.12760   Biso      1.000     C          -0.116148           
         C18       1.0000    0.34770   0.38080   0.65690   Biso      1.000     C          -0.19153  
         C19       1.0000    0.57100   0.63860   0.69540   Biso      1.000     C          -0.19915  
         C20       1.0000    0.54860   0.61950   0.79550   Biso      1.000     C          0.115624  
         C21       1.0000    0.95220   0.20360   0.91450   Biso      1.000     C          -0.032718           
         C22       1.0000    0.64510   0.41750   0.77420   Biso      1.000     C          0.093553  
         C23       1.0000    0.90220   0.60050   0.76520   Biso      1.000     C          0.104409  
         C24       1.0000    0.72970   0.40920   0.32640   Biso      1.000     C          -0.199678           
         C25       1.0000    0.63140   0.54030   0.63540   Biso      1.000     C          0.183642  
         C26       1.0000    0.67210   0.62820   0.24330   Biso      1.000     C          0.117608  
         C27       1.0000    0.83980   0.78050   0.68870   Biso      1.000     C          0.120484  
         C28       1.0000    0.14530   0.97640   0.83200   Biso      1.000     C          -0.118367           
         C29       1.0000    0.68280   0.50640   0.38440   Biso      1.000     C          0.18591   
         C30       1.0000    0.94910   0.54060   0.67730   Biso      1.000     C          -0.205768           
         C31       1.0000    0.35490   0.58250   0.22580   Biso      1.000     C          0.093487  
         C32       1.0000    0.93790   0.91780   0.87700   Biso      1.000     C          0.573987  
         C33       1.0000    0.67130   0.42860   0.67390   Biso      1.000     C          -0.212836           
         C34       1.0000    0.93930   0.60530   0.59310   Biso      1.000     C          0.216912  
         C35       1.0000    0.19820   0.05650   0.83060   Biso      1.000     C          -0.055527           
         C36       1.0000    0.74570   0.42650   0.22850   Biso      1.000     C          0.114909  
         C37       1.0000    0.99510   0.00710   0.87340   Biso      1.000     C          -0.01889  
         C38       1.0000    0.89700   0.12260   0.91500   Biso      1.000     C          -0.139357           
         C39       1.0000    0.10270   0.17020   0.87240   Biso      1.000     C          -0.115982           
         C40       1.0000    0.65230   0.61920   0.34310   Biso      1.000     C          -0.191862           
         C41       1.0000    0.88270   0.72800   0.60050   Biso      1.000     C          -0.18184  
         C42       1.0000    0.04780   0.79640   0.08550   Biso      1.000     C          -0.032318           
         C43       1.0000    0.32870   0.57140   0.32610   Biso      1.000     C          -0.212776           
         C44       1.0000    0.42900   0.36140   0.30460   Biso      1.000     C          -0.199531           
         C45       1.0000    0.15750   0.67420   0.03610   Biso      1.000     C          0.598687  
         C46       1.0000    0.45140   0.38050   0.20450   Biso      1.000     C          0.115403  
         H1        1.0000    0.24980   0.66680   0.64730   Biso      1.000     H          0.14866   
         H2        1.0000    0.34920   0.29690   0.78500   Biso      1.000     H          0.112806  
         H3        1.0000    0.19760   0.13630   0.30700   Biso      1.000     H          0.108829  
         H4        1.0000    0.79240   0.10050   0.19440   Biso      1.000     H          0.122035  
         H5        1.0000    0.01280   0.54260   0.32580   Biso      1.000     H          0.137515  
         H6        1.0000    0.12550   0.22640   0.45550   Biso      1.000     H          0.151658  
         H7        1.0000    0.28400   0.63920   0.36790   Biso      1.000     H          0.13089   
         H8        1.0000    0.20200   0.85750   0.05820   Biso      1.000     H          0.132259  
         H9        1.0000    0.86050   0.77380   0.12740   Biso      1.000     H          0.106561  
         H10       1.0000    0.38090   0.31310   0.61730   Biso      1.000     H          0.147724  
         H11       1.0000    0.32820   0.65860   0.19970   Biso      1.000     H          0.102324  
         H12       1.0000    0.49310   0.31360   0.16200   Biso      1.000     H          0.100243  
         H13       1.0000    0.45400   0.28470   0.32970   Biso      1.000     H          0.150605  
         H14       1.0000    0.07400   0.35520   0.00310   Biso      1.000     H          0.421939  
         H15       1.0000    0.50190   0.68140   0.02230   Biso      1.000     H          0.4362    
         H16       1.0000    0.09170   0.44290   0.17750   Biso      1.000     H          0.095361  
         H17       1.0000    0.49810   0.31860   0.97770   Biso      1.000     H          0.436154  
         H18       1.0000    0.22420   0.63980   0.81200   Biso      1.000     H          0.100897  
         H19       1.0000    0.54600   0.71530   0.67030   Biso      1.000     H          0.15046   
         H20       1.0000    0.92600   0.64480   0.99690   Biso      1.000     H          0.421919  
         H21       1.0000    0.90830   0.55710   0.82250   Biso      1.000     H          0.095377  
         H22       1.0000    0.75020   0.33320   0.35270   Biso      1.000     H          0.148697  
         H23       1.0000    0.80240   0.86370   0.69300   Biso      1.000     H          0.109177  
         H24       1.0000    0.20760   0.89950   0.80560   Biso      1.000     H          0.121936  
         H25       1.0000    0.98720   0.45740   0.67420   Biso      1.000     H          0.13757   
         H26       1.0000    0.87450   0.77360   0.54450   Biso      1.000     H          0.15159   
         H27       1.0000    0.65080   0.70310   0.21500   Biso      1.000     H          0.113098  
         H28       1.0000    0.77580   0.36020   0.18800   Biso      1.000     H          0.100905  
         H29       1.0000    0.71600   0.36080   0.63210   Biso      1.000     H          0.130935  
         H30       1.0000    0.67180   0.34140   0.80030   Biso      1.000     H          0.102357  
         H31       1.0000    0.61910   0.68690   0.38270   Biso      1.000     H          0.147825  
         H32       1.0000    0.50690   0.68640   0.83800   Biso      1.000     H          0.100337  
         H33       1.0000    0.79800   0.14250   0.94180   Biso      1.000     H          0.132031  
         H34       1.0000    0.13950   0.22620   0.87260   Biso      1.000     H          0.106656  
         N1        1.0000    0.01660   0.44560   0.50020   Biso      1.000     N          -0.13645  
         N2        1.0000    0.98340   0.55440   0.49980   Biso      1.000     N          -0.136359           
         N3        1.0000    0.64800   0.56430   0.53070   Biso      1.000     N          -0.075265           
         N4        1.0000    0.66750   0.48160   0.48840   Biso      1.000     N          -0.100389           
         N5        1.0000    0.84770   0.71940   0.77170   Biso      1.000     N          -0.236462           
         N6        1.0000    0.72090   0.53260   0.18660   Biso      1.000     N          -0.243855           
         N7        1.0000    0.41820   0.48680   0.16410   Biso      1.000     N          -0.228885           
         N8        1.0000    0.27910   0.46740   0.81340   Biso      1.000     N          -0.243798           
         N9        1.0000    0.15230   0.28060   0.22830   Biso      1.000     N          -0.236785           
         N10       1.0000    0.33250   0.51840   0.51160   Biso      1.000     N          -0.100425           
         N11       1.0000    0.35200   0.43570   0.46930   Biso      1.000     N          -0.075213           
         N12       1.0000    0.58180   0.51320   0.83590   Biso      1.000     N          -0.228992           
         O1        1.0000    0.19970   0.04940   0.09570   Biso      1.000     O          -0.555175           
         O2        1.0000    0.97830   0.18760   0.14370   Biso      1.000     O          -0.579268           
         O3        1.0000    0.42450   0.38520   0.99000   Biso      1.000     O          -0.919975           
         O4        1.0000    0.42770   0.04590   0.67950   Biso      1.000     O          -0.616066           
         O5        1.0000    0.84450   0.66270   0.99010   Biso      1.000     O          -0.895054           
         O6        1.0000    0.70880   0.35050   0.99590   Biso      1.000     O          -0.569926           
         O7        1.0000    0.89750   0.39570   0.96890   Biso      1.000     O          -0.556536           
         O8        1.0000    0.15550   0.33730   0.00990   Biso      1.000     O          -0.895068           
         O9        1.0000    0.46440   0.89810   0.80680   Biso      1.000     O          -0.631138           
         O10       1.0000    0.42120   0.08960   0.82550   Biso      1.000     O          -0.670337           
         O11       1.0000    0.57550   0.61480   0.01000   Biso      1.000     O          -0.920032           
         O12       1.0000    0.02170   0.81240   0.85630   Biso      1.000     O          -0.579284           
         O13       1.0000    0.10250   0.60430   0.03110   Biso      1.000     O          -0.556511           
         O14       1.0000    0.53560   0.10190   0.19320   Biso      1.000     O          -0.627873           
         O15       1.0000    0.57230   0.95410   0.32050   Biso      1.000     O          -0.612713           
         O16       1.0000    0.57880   0.91040   0.17450   Biso      1.000     O          -0.663774           
         O17       1.0000    0.80030   0.95060   0.90430   Biso      1.000     O          -0.554787           
         O18       1.0000    0.29120   0.64950   0.00410   Biso      1.000     O          -0.569658           
         S1        1.0000    0.39610   0.01430   0.77660   Biso      1.000     S          1.232348  
         S2        1.0000    0.60390   0.98570   0.22340   Biso      1.000     S          1.231147  
         Zn1       1.0000    0.50000   0.50000   0.00000   Biso      1.000     Zn          0.889013  
         Zn2       1.0000    0.78919   0.79608   0.90679   Biso      1.000     Zn          0.954975  
         Zn3       1.0000    0.75157   0.55432   0.03820   Biso      1.000     Zn          0.915469  
         Zn4       1.0000    0.21081   0.20392   0.09321   Biso      1.000     Zn          0.956229  
         Zn5       1.0000    0.24843   0.44568   0.96180   Biso      1.000     Zn          0.915501 