
##########################################################################
#               Crystallographic Information Format file
#               Produced by PyCifRW module
#
#  This is a CIF file.  CIF has been adopted by the International
#  Union of Crystallography as the standard for data archiving and
#  transmission.
#
#  For information on this file format, follow the CIF links at
#  http://www.iucr.org
##########################################################################

data_image0

_cell_length_a                          8.4221
_cell_length_b                          8.4221
_cell_length_c                          12.049
_cell_angle_alpha                       90
_cell_angle_beta                        90
_cell_angle_gamma                       90
_symmetry_space_group_name_H-M          'P 1'
_symmetry_int_tables_number             1
loop_
  _symmetry_equiv_pos_as_xyz
         'x, y, z' 
loop_
  _atom_site_label
  _atom_site_occupancy
  _atom_site_fract_x
  _atom_site_fract_y
  _atom_site_fract_z
  _atom_site_thermal_displace_type
  _atom_site_B_iso_or_equiv
  _atom_site_type_symbol
  _atom_site_charge
         C1        1.0000    0.22510   0.45710   0.14600   Biso      1.000     C          -0.526945           
         C2        1.0000    0.87120   0.63960   0.72780   Biso      1.000     C          0.708073  
         C3        1.0000    0.77490   0.54290   0.64600   Biso      1.000     C          -0.526946           
         C4        1.0000    0.75890   0.61190   0.52960   Biso      1.000     C          0.6981970000000001  
         C5        1.0000    0.12880   0.36040   0.22780   Biso      1.000     C          0.708074  
         C6        1.0000    0.24110   0.38810   0.02960   Biso      1.000     C          0.698195  
         C7        1.0000    0.63960   0.12880   0.47780   Biso      1.000     C          0.708073  
         C8        1.0000    0.54290   0.22510   0.39600   Biso      1.000     C          -0.526946           
         C9        1.0000    0.61190   0.24110   0.27960   Biso      1.000     C          0.698195  
         C10       1.0000    0.36040   0.87120   0.97780   Biso      1.000     C          0.708072  
         C11       1.0000    0.45710   0.77490   0.89600   Biso      1.000     C          -0.526945           
         C12       1.0000    0.38810   0.75890   0.77960   Biso      1.000     C          0.698196  
         Cu1       1.0000    0.09745   0.69409   0.89107   Biso      1.000     Cu          0.924999  
         Cu2       1.0000    0.69409   0.90255   0.64107   Biso      1.000     Cu          0.925     
         Cu3       1.0000    0.90255   0.30591   0.39107   Biso      1.000     Cu          0.925003  
         Cu4       1.0000    0.30591   0.09745   0.14107   Biso      1.000     Cu          0.924999  
         H1        1.0000    0.66920   0.52850   0.67640   Biso      1.000     H          0.19886199999999998           
         H2        1.0000    0.56140   0.82300   0.89000   Biso      1.000     H          0.170877  
         H3        1.0000    0.82300   0.43860   0.64000   Biso      1.000     H          0.170878  
         H4        1.0000    0.43860   0.17700   0.39000   Biso      1.000     H          0.170878  
         H5        1.0000    0.52850   0.33080   0.42640   Biso      1.000     H          0.19886199999999998           
         H6        1.0000    0.17700   0.56140   0.14000   Biso      1.000     H          0.170878  
         H7        1.0000    0.33080   0.47150   0.17640   Biso      1.000     H          0.19886099999999998           
         H8        1.0000    0.47150   0.66920   0.92640   Biso      1.000     H          0.19886099999999998           
         O1        1.0000    0.85180   0.78930   0.73214   Biso      1.000     O          -0.605483           
         O2        1.0000    0.26760   0.24060   0.01956   Biso      1.000     O          -0.499623           
         O3        1.0000    0.73240   0.75940   0.51956   Biso      1.000     O          -0.499626           
         O4        1.0000    0.03550   0.43290   0.29024   Biso      1.000     O          -0.5064350000000001           
         O5        1.0000    0.23290   0.47910   0.94825   Biso      1.000     O          -0.56252  
         O6        1.0000    0.14820   0.21070   0.23214   Biso      1.000     O          -0.605484           
         O7        1.0000    0.56710   0.03550   0.54024   Biso      1.000     O          -0.506434           
         O8        1.0000    0.47910   0.76710   0.69825   Biso      1.000     O          -0.562521           
         O9        1.0000    0.78930   0.14820   0.48214   Biso      1.000     O          -0.605484           
         O10       1.0000    0.75940   0.26760   0.26956   Biso      1.000     O          -0.49962399999999996          
         O11       1.0000    0.43290   0.96450   0.04024   Biso      1.000     O          -0.506434           
         O12       1.0000    0.21070   0.85180   0.98214   Biso      1.000     O          -0.605481           
         O13       1.0000    0.24060   0.73240   0.76956   Biso      1.000     O          -0.499625           
         O14       1.0000    0.76710   0.52090   0.44825   Biso      1.000     O          -0.5625220000000001           
         O15       1.0000    0.52090   0.23290   0.19825   Biso      1.000     O          -0.562521           
         O16       1.0000    0.96450   0.56710   0.79024   Biso      1.000     O          -0.506434 