
##########################################################################
#               Crystallographic Information Format file
#               Produced by PyCifRW module
#
#  This is a CIF file.  CIF has been adopted by the International
#  Union of Crystallography as the standard for data archiving and
#  transmission.
#
#  For information on this file format, follow the CIF links at
#  http://www.iucr.org
##########################################################################

data_image0

_cell_length_a                          8.4015
_cell_length_b                          8.4015
_cell_length_c                          12.015
_cell_angle_alpha                       90
_cell_angle_beta                        90
_cell_angle_gamma                       90
_symmetry_space_group_name_H-M          'P 1'
_symmetry_int_tables_number             1
loop_
  _symmetry_equiv_pos_as_xyz
         'x, y, z' 
loop_
  _atom_site_label
  _atom_site_occupancy
  _atom_site_fract_x
  _atom_site_fract_y
  _atom_site_fract_z
  _atom_site_thermal_displace_type
  _atom_site_B_iso_or_equiv
  _atom_site_type_symbol
  _atom_site_charge
         C1        1.0000    0.95760   0.72700   0.13000   Biso      1.000     C          -0.532198           
         C2        1.0000    0.14120   0.37020   0.71150   Biso      1.000     C          0.710194  
         C3        1.0000    0.04240   0.27300   0.63000   Biso      1.000     C          -0.532198           
         C4        1.0000    0.11190   0.25850   0.51250   Biso      1.000     C          0.702843  
         C5        1.0000    0.85880   0.62980   0.21150   Biso      1.000     C          0.710195  
         C6        1.0000    0.88810   0.74150   0.01250   Biso      1.000     C          0.7028439999999999  
         C7        1.0000    0.37020   0.85880   0.96150   Biso      1.000     C          0.710194  
         C8        1.0000    0.27300   0.95760   0.88000   Biso      1.000     C          -0.532198           
         C9        1.0000    0.25850   0.88810   0.76250   Biso      1.000     C          0.7028439999999999  
         C10       1.0000    0.62980   0.14120   0.46150   Biso      1.000     C          0.710194  
         C11       1.0000    0.72700   0.04240   0.38000   Biso      1.000     C          -0.532198           
         C12       1.0000    0.74150   0.11190   0.26250   Biso      1.000     C          0.7028439999999999  
         Cu1       1.0000    0.80664   0.40272   0.37512   Biso      1.000     Cu          0.923082  
         Cu2       1.0000    0.40272   0.19336   0.62512   Biso      1.000     Cu          0.923083  
         Cu3       1.0000    0.19336   0.59728   0.87512   Biso      1.000     Cu          0.923082  
         Cu4       1.0000    0.59728   0.80664   0.12512   Biso      1.000     Cu          0.9230799999999999  
         H1        1.0000    0.93760   0.32080   0.62460   Biso      1.000     H          0.170774  
         H2        1.0000    0.83320   0.02890   0.41030   Biso      1.000     H          0.197947  
         H3        1.0000    0.02890   0.16680   0.66030   Biso      1.000     H          0.197948  
         H4        1.0000    0.16680   0.97110   0.91030   Biso      1.000     H          0.197947  
         H5        1.0000    0.32080   0.06240   0.87460   Biso      1.000     H          0.170774  
         H6        1.0000    0.97110   0.83320   0.16030   Biso      1.000     H          0.197947  
         H7        1.0000    0.06240   0.67920   0.12460   Biso      1.000     H          0.170774  
         H8        1.0000    0.67920   0.93760   0.37460   Biso      1.000     H          0.170774  
         O1        1.0000    0.02160   0.26710   0.43230   Biso      1.000     O          -0.558351           
         O2        1.0000    0.74080   0.76790   0.00290   Biso      1.000     O          -0.502909           
         O3        1.0000    0.25920   0.23210   0.50290   Biso      1.000     O          -0.5029100000000001           
         O4        1.0000    0.93370   0.53590   0.27330   Biso      1.000     O          -0.5123810000000001           
         O5        1.0000    0.71130   0.64810   0.21620   Biso      1.000     O          -0.599001           
         O6        1.0000    0.97840   0.73290   0.93230   Biso      1.000     O          -0.5583520000000001           
         O7        1.0000    0.46410   0.93370   0.02330   Biso      1.000     O          -0.512382           
         O8        1.0000    0.64810   0.28870   0.46620   Biso      1.000     O          -0.598999           
         O9        1.0000    0.26710   0.97840   0.68230   Biso      1.000     O          -0.5583520000000001           
         O10       1.0000    0.23210   0.74080   0.75290   Biso      1.000     O          -0.5029100000000001           
         O11       1.0000    0.53590   0.06630   0.52330   Biso      1.000     O          -0.512382           
         O12       1.0000    0.73290   0.02160   0.18230   Biso      1.000     O          -0.5583520000000001           
         O13       1.0000    0.76790   0.25920   0.25290   Biso      1.000     O          -0.502911           
         O14       1.0000    0.28870   0.35190   0.71620   Biso      1.000     O          -0.599    
         O15       1.0000    0.35190   0.71130   0.96620   Biso      1.000     O          -0.599    
         O16       1.0000    0.06630   0.46410   0.77330   Biso      1.000     O          -0.5123810000000001 