
##########################################################################
#               Crystallographic Information Format file
#               Produced by PyCifRW module
#
#  This is a CIF file.  CIF has been adopted by the International
#  Union of Crystallography as the standard for data archiving and
#  transmission.
#
#  For information on this file format, follow the CIF links at
#  http://www.iucr.org
##########################################################################

data_image0

_cell_length_a                          6.0922
_cell_length_b                          9.9633
_cell_length_c                          13.3598
_cell_angle_alpha                       68.853
_cell_angle_beta                        81.104
_cell_angle_gamma                       76.848
_symmetry_space_group_name_H-M          'P 1'
_symmetry_int_tables_number             1
loop_
  _symmetry_equiv_pos_as_xyz
         'x, y, z' 
loop_
  _atom_site_label
  _atom_site_occupancy
  _atom_site_fract_x
  _atom_site_fract_y
  _atom_site_fract_z
  _atom_site_thermal_displace_type
  _atom_site_B_iso_or_equiv
  _atom_site_type_symbol
  _atom_site_charge
         C1        1.0000    0.28990   0.55590   0.52720   Biso      1.000     C          0.100928  
         C2        1.0000    0.91120   0.56010   0.96550   Biso      1.000     C          0.50326   
         C3        1.0000    0.38280   0.60240   0.42240   Biso      1.000     C          0.083503  
         C4        1.0000    0.04930   0.61740   0.56050   Biso      1.000     C          0.574551  
         C5        1.0000    0.80790   0.97020   0.98480   Biso      1.000     C          0.090923  
         C6        1.0000    0.86600   0.10660   0.93130   Biso      1.000     C          0.081586  
         C7        1.0000    0.28830   0.76610   0.14100   Biso      1.000     C          0.606431  
         C8        1.0000    0.13400   0.89340   0.06870   Biso      1.000     C          0.081584  
         C9        1.0000    0.19210   0.02980   0.01520   Biso      1.000     C          0.090923  
         C10       1.0000    0.95070   0.38260   0.43950   Biso      1.000     C          0.574551  
         C11       1.0000    0.71010   0.44410   0.47280   Biso      1.000     C          0.100926  
         C12       1.0000    0.61720   0.39760   0.57760   Biso      1.000     C          0.083504  
         C13       1.0000    0.08880   0.43990   0.03450   Biso      1.000     C          0.503264  
         C14       1.0000    0.71170   0.23390   0.85900   Biso      1.000     C          0.606427  
         Gd1       1.0000    0.83214   0.61429   0.19572   Biso      1.000     Gd          1.911059  
         Gd2       1.0000    0.16786   0.38571   0.80429   Biso      1.000     Gd          1.911069  
         H1        1.0000    0.67310   0.95290   0.97190   Biso      1.000     H          0.11470899999999999           
         H2        1.0000    0.70400   0.32480   0.62970   Biso      1.000     H          0.10313   
         H3        1.0000    0.32690   0.04710   0.02810   Biso      1.000     H          0.11470699999999999           
         H4        1.0000    0.29600   0.67520   0.37030   Biso      1.000     H          0.103127  
         N1        1.0000    0.94010   0.86370   0.05420   Biso      1.000     N          -0.272559           
         N2        1.0000    0.59340   0.54650   0.39330   Biso      1.000     N          -0.327786           
         N3        1.0000    0.05990   0.13630   0.94580   Biso      1.000     N          -0.272555           
         N4        1.0000    0.40660   0.45350   0.60670   Biso      1.000     N          -0.327776           
         O1        1.0000    0.93090   0.70940   0.48980   Biso      1.000     O          -0.551946           
         O2        1.0000    0.98580   0.56850   0.65820   Biso      1.000     O          -0.649787           
         O3        1.0000    0.52010   0.21660   0.84860   Biso      1.000     O          -0.6170640000000001           
         O4        1.0000    0.78580   0.35070   0.81630   Biso      1.000     O          -0.591511           
         O5        1.0000    0.22300   0.36120   0.98730   Biso      1.000     O          -0.617452           
         O6        1.0000    0.47990   0.78340   0.15140   Biso      1.000     O          -0.617059           
         O7        1.0000    0.06910   0.29060   0.51020   Biso      1.000     O          -0.551929           
         O8        1.0000    0.01420   0.43150   0.34180   Biso      1.000     O          -0.649783           
         O9        1.0000    0.21420   0.64930   0.18370   Biso      1.000     O          -0.5915199999999999           
         O10       1.0000    0.91530   0.57050   0.86970   Biso      1.000     O          -0.54201  
         O11       1.0000    0.08470   0.42950   0.13030   Biso      1.000     O          -0.541989           
         O12       1.0000    0.77700   0.63880   0.01270   Biso      1.000     O          -0.617433 