
##########################################################################
#               Crystallographic Information Format file
#               Produced by PyCifRW module
#
#  This is a CIF file.  CIF has been adopted by the International
#  Union of Crystallography as the standard for data archiving and
#  transmission.
#
#  For information on this file format, follow the CIF links at
#  http://www.iucr.org
##########################################################################

data_image0

_cell_length_a                          6.1009
_cell_length_b                          9.9758
_cell_length_c                          13.3825
_cell_angle_alpha                       68.871
_cell_angle_beta                        81.033
_cell_angle_gamma                       76.75
_symmetry_space_group_name_H-M          'P 1'
_symmetry_int_tables_number             1
loop_
  _symmetry_equiv_pos_as_xyz
         'x, y, z' 
loop_
  _atom_site_label
  _atom_site_occupancy
  _atom_site_fract_x
  _atom_site_fract_y
  _atom_site_fract_z
  _atom_site_thermal_displace_type
  _atom_site_B_iso_or_equiv
  _atom_site_type_symbol
  _atom_site_charge
         C1        1.0000    0.29030   0.55620   0.52700   Biso      1.000     C          0.07961   
         C2        1.0000    0.91240   0.56070   0.96550   Biso      1.000     C          0.49424399999999996           
         C3        1.0000    0.38160   0.60250   0.42300   Biso      1.000     C          0.061323  
         C4        1.0000    0.04930   0.61640   0.56020   Biso      1.000     C          0.530709  
         C5        1.0000    0.80950   0.97060   0.98460   Biso      1.000     C          0.058912  
         C6        1.0000    0.86750   0.10500   0.93190   Biso      1.000     C          0.072574  
         C7        1.0000    0.28660   0.76780   0.14160   Biso      1.000     C          0.565254  
         C8        1.0000    0.13250   0.89500   0.06810   Biso      1.000     C          0.072572  
         C9        1.0000    0.19050   0.02940   0.01540   Biso      1.000     C          0.058914999999999995          
         C10       1.0000    0.95070   0.38360   0.43980   Biso      1.000     C          0.530695  
         C11       1.0000    0.70970   0.44380   0.47300   Biso      1.000     C          0.079608  
         C12       1.0000    0.61840   0.39750   0.57700   Biso      1.000     C          0.061323  
         C13       1.0000    0.08760   0.43930   0.03450   Biso      1.000     C          0.494245  
         C14       1.0000    0.71340   0.23220   0.85840   Biso      1.000     C          0.565258  
         Eu1       1.0000    0.83164   0.61437   0.19600   Biso      1.000     Eu          1.255951  
         Eu2       1.0000    0.16836   0.38563   0.80400   Biso      1.000     Eu          1.255952  
         H1        1.0000    0.67520   0.95360   0.97120   Biso      1.000     H          0.10874   
         H2        1.0000    0.70600   0.32530   0.62890   Biso      1.000     H          0.1142    
         H3        1.0000    0.32480   0.04640   0.02880   Biso      1.000     H          0.10874   
         H4        1.0000    0.29400   0.67470   0.37110   Biso      1.000     H          0.11419800000000001           
         N1        1.0000    0.93950   0.86440   0.05420   Biso      1.000     N          -0.22595700000000002          
         N2        1.0000    0.59390   0.54700   0.39360   Biso      1.000     N          -0.210481           
         N3        1.0000    0.06050   0.13560   0.94580   Biso      1.000     N          -0.225954           
         N4        1.0000    0.40610   0.45300   0.60640   Biso      1.000     N          -0.210486           
         O1        1.0000    0.93180   0.70960   0.48980   Biso      1.000     O          -0.38314699999999996          
         O2        1.0000    0.98580   0.56970   0.65740   Biso      1.000     O          -0.5183270000000001           
         O3        1.0000    0.52150   0.21570   0.84910   Biso      1.000     O          -0.582095           
         O4        1.0000    0.78560   0.34980   0.81570   Biso      1.000     O          -0.549736           
         O5        1.0000    0.22350   0.36250   0.98670   Biso      1.000     O          -0.459742           
         O6        1.0000    0.47850   0.78430   0.15090   Biso      1.000     O          -0.582094           
         O7        1.0000    0.06820   0.29040   0.51020   Biso      1.000     O          -0.383117           
         O8        1.0000    0.01420   0.43030   0.34260   Biso      1.000     O          -0.5183270000000001           
         O9        1.0000    0.21440   0.65020   0.18430   Biso      1.000     O          -0.549724           
         O10       1.0000    0.91560   0.57070   0.86990   Biso      1.000     O          -0.412046           
         O11       1.0000    0.08440   0.42930   0.13010   Biso      1.000     O          -0.41204700000000005          
         O12       1.0000    0.77650   0.63750   0.01330   Biso      1.000     O          -0.459743 