
##########################################################################
#               Crystallographic Information Format file
#               Produced by PyCifRW module
#
#  This is a CIF file.  CIF has been adopted by the International
#  Union of Crystallography as the standard for data archiving and
#  transmission.
#
#  For information on this file format, follow the CIF links at
#  http://www.iucr.org
##########################################################################

data_image0

_cell_length_a                          6.1645
_cell_length_b                          10.074
_cell_length_c                          13.503
_cell_angle_alpha                       68.951
_cell_angle_beta                        80.872
_cell_angle_gamma                       76.667
_symmetry_space_group_name_H-M          'P 1'
_symmetry_int_tables_number             1
loop_
  _symmetry_equiv_pos_as_xyz
         'x, y, z' 
loop_
  _atom_site_label
  _atom_site_occupancy
  _atom_site_fract_x
  _atom_site_fract_y
  _atom_site_fract_z
  _atom_site_thermal_displace_type
  _atom_site_B_iso_or_equiv
  _atom_site_type_symbol
  _atom_site_charge
         C1        1.0000    0.28980   0.55490   0.52700   Biso      1.000     C          0.104464  
         C2        1.0000    0.91270   0.55970   0.96620   Biso      1.000     C          0.503096  
         C3        1.0000    0.38360   0.60120   0.42250   Biso      1.000     C          0.084129  
         C4        1.0000    0.05310   0.61580   0.55910   Biso      1.000     C          0.566195  
         C5        1.0000    0.80940   0.97060   0.98550   Biso      1.000     C          0.090229  
         C6        1.0000    0.86640   0.10500   0.93180   Biso      1.000     C          0.085519  
         C7        1.0000    0.71620   0.23050   0.85950   Biso      1.000     C          0.602134  
         C8        1.0000    0.08730   0.44030   0.03380   Biso      1.000     C          0.503109  
         C9        1.0000    0.61640   0.39880   0.57750   Biso      1.000     C          0.084139  
         C10       1.0000    0.71020   0.44510   0.47300   Biso      1.000     C          0.104454  
         C11       1.0000    0.19060   0.02940   0.01450   Biso      1.000     C          0.090232  
         C12       1.0000    0.13360   0.89500   0.06820   Biso      1.000     C          0.085513  
         C13       1.0000    0.28380   0.76950   0.14050   Biso      1.000     C          0.602145  
         C14       1.0000    0.94690   0.38420   0.44090   Biso      1.000     C          0.566205  
         H1        1.0000    0.29840   0.67290   0.37070   Biso      1.000     H          0.10354   
         H2        1.0000    0.67610   0.95310   0.97320   Biso      1.000     H          0.114549  
         H3        1.0000    0.70160   0.32710   0.62930   Biso      1.000     H          0.103543  
         H4        1.0000    0.32390   0.04690   0.02680   Biso      1.000     H          0.114548  
         N1        1.0000    0.94020   0.86590   0.05440   Biso      1.000     N          -0.280484           
         N2        1.0000    0.05980   0.13410   0.94560   Biso      1.000     N          -0.280489           
         N3        1.0000    0.40760   0.45430   0.60540   Biso      1.000     N          -0.333414           
         N4        1.0000    0.59240   0.54570   0.39460   Biso      1.000     N          -0.33341  
         Nd1       1.0000    0.82878   0.61541   0.19666   Biso      1.000     Nd          1.948137  
         Nd2       1.0000    0.17122   0.38459   0.80335   Biso      1.000     Nd          1.948065  
         O1        1.0000    0.21210   0.65430   0.18460   Biso      1.000     O          -0.595177           
         O2        1.0000    0.47380   0.78760   0.14960   Biso      1.000     O          -0.62302  
         O3        1.0000    0.01180   0.43090   0.34380   Biso      1.000     O          -0.648375           
         O4        1.0000    0.06470   0.29250   0.51140   Biso      1.000     O          -0.552557           
         O5        1.0000    0.08290   0.43080   0.12890   Biso      1.000     O          -0.557347           
         O6        1.0000    0.22060   0.36310   0.98780   Biso      1.000     O          -0.611638           
         O7        1.0000    0.78790   0.34570   0.81540   Biso      1.000     O          -0.595144           
         O8        1.0000    0.52620   0.21240   0.85040   Biso      1.000     O          -0.623006           
         O9        1.0000    0.98820   0.56910   0.65620   Biso      1.000     O          -0.648348           
         O10       1.0000    0.93530   0.70750   0.48860   Biso      1.000     O          -0.552573           
         O11       1.0000    0.91710   0.56920   0.87110   Biso      1.000     O          -0.557328           
         O12       1.0000    0.77940   0.63690   0.01220   Biso      1.000     O          -0.611634 