
##########################################################################
#               Crystallographic Information Format file
#               Produced by PyCifRW module
#
#  This is a CIF file.  CIF has been adopted by the International
#  Union of Crystallography as the standard for data archiving and
#  transmission.
#
#  For information on this file format, follow the CIF links at
#  http://www.iucr.org
##########################################################################

data_image0

_cell_length_a                          6.078
_cell_length_b                          9.95
_cell_length_c                          13.337
_cell_angle_alpha                       68.823
_cell_angle_beta                        81.142
_cell_angle_gamma                       76.813
_symmetry_space_group_name_H-M          'P 1'
_symmetry_int_tables_number             1
loop_
  _symmetry_equiv_pos_as_xyz
         'x, y, z' 
loop_
  _atom_site_label
  _atom_site_occupancy
  _atom_site_fract_x
  _atom_site_fract_y
  _atom_site_fract_z
  _atom_site_thermal_displace_type
  _atom_site_B_iso_or_equiv
  _atom_site_type_symbol
  _atom_site_charge
         C1        1.0000    0.28700   0.55740   0.52650   Biso      1.000     C          0.10700599999999999           
         C2        1.0000    0.91100   0.55950   0.96670   Biso      1.000     C          0.506233  
         C3        1.0000    0.37900   0.60320   0.42300   Biso      1.000     C          0.08467999999999999           
         C4        1.0000    0.05000   0.61600   0.56050   Biso      1.000     C          0.56648   
         C5        1.0000    0.81100   0.97040   0.98500   Biso      1.000     C          0.09483899999999999           
         C6        1.0000    0.86520   0.10720   0.93030   Biso      1.000     C          0.080738  
         C7        1.0000    0.08900   0.44050   0.03330   Biso      1.000     C          0.506234  
         C8        1.0000    0.62100   0.39680   0.57700   Biso      1.000     C          0.08467100000000001           
         C9        1.0000    0.71300   0.44260   0.47350   Biso      1.000     C          0.10701400000000001           
         C10       1.0000    0.71100   0.23510   0.85920   Biso      1.000     C          0.609495  
         C11       1.0000    0.18900   0.02960   0.01500   Biso      1.000     C          0.09483899999999999           
         C12       1.0000    0.13480   0.89280   0.06970   Biso      1.000     C          0.080738  
         C13       1.0000    0.28900   0.76490   0.14080   Biso      1.000     C          0.609495  
         C14       1.0000    0.95000   0.38400   0.43950   Biso      1.000     C          0.56648   
         H1        1.0000    0.70870   0.32510   0.62940   Biso      1.000     H          0.10460699999999999           
         H2        1.0000    0.32510   0.04630   0.02790   Biso      1.000     H          0.110893  
         H3        1.0000    0.29130   0.67490   0.37060   Biso      1.000     H          0.10460599999999999           
         H4        1.0000    0.67490   0.95370   0.97210   Biso      1.000     H          0.110893  
         N1        1.0000    0.93780   0.86240   0.05410   Biso      1.000     N          -0.276412           
         N2        1.0000    0.59540   0.54810   0.39320   Biso      1.000     N          -0.338044           
         N3        1.0000    0.06220   0.13760   0.94590   Biso      1.000     N          -0.276412           
         N4        1.0000    0.40460   0.45190   0.60680   Biso      1.000     N          -0.338042           
         O1        1.0000    0.98440   0.56790   0.65900   Biso      1.000     O          -0.649981           
         O2        1.0000    0.22370   0.36200   0.98730   Biso      1.000     O          -0.610486           
         O3        1.0000    0.92980   0.71180   0.48950   Biso      1.000     O          -0.548801           
         O4        1.0000    0.52030   0.21790   0.84730   Biso      1.000     O          -0.620881           
         O5        1.0000    0.78480   0.35250   0.81650   Biso      1.000     O          -0.598507           
         O6        1.0000    0.08280   0.43020   0.13010   Biso      1.000     O          -0.557891           
         O7        1.0000    0.77630   0.63800   0.01270   Biso      1.000     O          -0.610486           
         O8        1.0000    0.01560   0.43210   0.34100   Biso      1.000     O          -0.649982           
         O9        1.0000    0.47970   0.78210   0.15270   Biso      1.000     O          -0.620881           
         O10       1.0000    0.21520   0.64750   0.18350   Biso      1.000     O          -0.598507           
         O11       1.0000    0.91720   0.56980   0.86990   Biso      1.000     O          -0.557891           
         O12       1.0000    0.07020   0.28820   0.51050   Biso      1.000     O          -0.548801           
         Tb1       1.0000    0.16637   0.38607   0.80454   Biso      1.000     Tb          1.936031  
         Tb2       1.0000    0.83363   0.61393   0.19546   Biso      1.000     Tb          1.936031 