
##########################################################################
#               Crystallographic Information Format file
#               Produced by PyCifRW module
#
#  This is a CIF file.  CIF has been adopted by the International
#  Union of Crystallography as the standard for data archiving and
#  transmission.
#
#  For information on this file format, follow the CIF links at
#  http://www.iucr.org
##########################################################################

data_image0

_cell_length_a                          6.0535
_cell_length_b                          9.9159
_cell_length_c                          13.2903
_cell_angle_alpha                       68.832
_cell_angle_beta                        81.273
_cell_angle_gamma                       76.875
_symmetry_space_group_name_H-M          'P 1'
_symmetry_int_tables_number             1
loop_
  _symmetry_equiv_pos_as_xyz
         'x, y, z' 
loop_
  _atom_site_label
  _atom_site_occupancy
  _atom_site_fract_x
  _atom_site_fract_y
  _atom_site_fract_z
  _atom_site_thermal_displace_type
  _atom_site_B_iso_or_equiv
  _atom_site_type_symbol
  _atom_site_charge
         C1        1.0000    0.28920   0.55520   0.52810   Biso      1.000     C          0.102056  
         C2        1.0000    0.91080   0.56100   0.96570   Biso      1.000     C          0.502919  
         C3        1.0000    0.38180   0.60400   0.42310   Biso      1.000     C          0.085649  
         C4        1.0000    0.04920   0.61830   0.56130   Biso      1.000     C          0.575731  
         C5        1.0000    0.80840   0.97040   0.98420   Biso      1.000     C          0.09540599999999999           
         C6        1.0000    0.86340   0.10710   0.93040   Biso      1.000     C          0.084832  
         C7        1.0000    0.28940   0.76470   0.14170   Biso      1.000     C          0.608466  
         C8        1.0000    0.13660   0.89290   0.06960   Biso      1.000     C          0.08483099999999999           
         C9        1.0000    0.19160   0.02960   0.01580   Biso      1.000     C          0.095408  
         C10       1.0000    0.95080   0.38170   0.43870   Biso      1.000     C          0.575731  
         C11       1.0000    0.71080   0.44480   0.47190   Biso      1.000     C          0.102056  
         C12       1.0000    0.61820   0.39600   0.57690   Biso      1.000     C          0.085649  
         C13       1.0000    0.08920   0.43900   0.03430   Biso      1.000     C          0.502919  
         C14       1.0000    0.71060   0.23530   0.85830   Biso      1.000     C          0.608466  
         Dy1       1.0000    0.83464   0.61382   0.19511   Biso      1.000     Dy          1.937921  
         Dy2       1.0000    0.16536   0.38618   0.80489   Biso      1.000     Dy          1.937921  
         H1        1.0000    0.67340   0.95240   0.97080   Biso      1.000     H          0.11358599999999999           
         H2        1.0000    0.70550   0.32140   0.62860   Biso      1.000     H          0.103402  
         H3        1.0000    0.32660   0.04760   0.02920   Biso      1.000     H          0.11358599999999999           
         H4        1.0000    0.29450   0.67860   0.37140   Biso      1.000     H          0.103402  
         N1        1.0000    0.93890   0.86390   0.05390   Biso      1.000     N          -0.280538           
         N2        1.0000    0.59300   0.54790   0.39300   Biso      1.000     N          -0.332545           
         N3        1.0000    0.06110   0.13610   0.94610   Biso      1.000     N          -0.280538           
         N4        1.0000    0.40700   0.45210   0.60700   Biso      1.000     N          -0.332545           
         O1        1.0000    0.92820   0.71060   0.49070   Biso      1.000     O          -0.549295           
         O2        1.0000    0.98440   0.56750   0.65940   Biso      1.000     O          -0.659285           
         O3        1.0000    0.51660   0.21890   0.84750   Biso      1.000     O          -0.626791           
         O4        1.0000    0.78380   0.35310   0.81600   Biso      1.000     O          -0.5947359999999999           
         O5        1.0000    0.22570   0.36120   0.98680   Biso      1.000     O          -0.617082           
         O6        1.0000    0.48340   0.78110   0.15250   Biso      1.000     O          -0.626791           
         O7        1.0000    0.07180   0.28940   0.50930   Biso      1.000     O          -0.549295           
         O8        1.0000    0.01560   0.43250   0.34060   Biso      1.000     O          -0.659285           
         O9        1.0000    0.21620   0.64690   0.18400   Biso      1.000     O          -0.5947359999999999           
         O10       1.0000    0.91570   0.57070   0.86920   Biso      1.000     O          -0.5496949999999999           
         O11       1.0000    0.08430   0.42930   0.13080   Biso      1.000     O          -0.5496949999999999           
         O12       1.0000    0.77430   0.63880   0.01320   Biso      1.000     O          -0.617082 