
##########################################################################
#               Crystallographic Information Format file
#               Produced by PyCifRW module
#
#  This is a CIF file.  CIF has been adopted by the International
#  Union of Crystallography as the standard for data archiving and
#  transmission.
#
#  For information on this file format, follow the CIF links at
#  http://www.iucr.org
##########################################################################

data_image0

_cell_length_a                          8.9427
_cell_length_b                          10.288
_cell_length_c                          10.288
_cell_angle_alpha                       120
_cell_angle_beta                        90
_cell_angle_gamma                       90
_symmetry_space_group_name_H-M          'P 1'
_symmetry_int_tables_number             1
loop_
  _symmetry_equiv_pos_as_xyz
         'x, y, z' 
loop_
  _atom_site_label
  _atom_site_occupancy
  _atom_site_fract_x
  _atom_site_fract_y
  _atom_site_fract_z
  _atom_site_thermal_displace_type
  _atom_site_B_iso_or_equiv
  _atom_site_type_symbol
  _atom_site_charge
         C1        1.0000    0.43340   0.44970   0.46190   Biso      1.000     C          0.08000700000000001           
         C2        1.0000    0.56660   0.46190   0.01220   Biso      1.000     C          0.080009  
         C3        1.0000    0.84380   0.44550   0.02530   Biso      1.000     C          0.626492  
         C4        1.0000    0.56660   0.55030   0.53810   Biso      1.000     C          0.08000399999999999           
         C5        1.0000    0.71560   0.47010   0.47900   Biso      1.000     C          -0.002939           
         C6        1.0000    0.84380   0.97470   0.42020   Biso      1.000     C          0.6265069999999999  
         C7        1.0000    0.56660   0.98780   0.44970   Biso      1.000     C          0.080006  
         C8        1.0000    0.71560   0.00890   0.52990   Biso      1.000     C          -0.002948           
         C9        1.0000    0.15620   0.55450   0.97470   Biso      1.000     C          0.6265029999999999  
         C10       1.0000    0.43340   0.53810   0.98780   Biso      1.000     C          0.079992  
         C11       1.0000    0.28440   0.47900   0.00890   Biso      1.000     C          -0.002936           
         C12       1.0000    0.15620   0.42020   0.44550   Biso      1.000     C          0.626508  
         C13       1.0000    0.28440   0.52990   0.52100   Biso      1.000     C          -0.00294  
         C14       1.0000    0.15620   0.02530   0.57980   Biso      1.000     C          0.62651   
         C15       1.0000    0.43340   0.01220   0.55030   Biso      1.000     C          0.08      
         C16       1.0000    0.28440   0.99110   0.47010   Biso      1.000     C          -0.002941           
         C17       1.0000    0.71560   0.52100   0.99110   Biso      1.000     C          -0.002941           
         C18       1.0000    0.84380   0.57980   0.55450   Biso      1.000     C          0.626513  
         Ce1       1.0000    0.95012   0.33333   0.66666   Biso      1.000     Ce          1.9981740000000001  
         Ce2       1.0000    0.04988   0.66667   0.33334   Biso      1.000     Ce          1.9981919999999997  
         H1        1.0000    0.43760   0.11510   0.63520   Biso      1.000     H          0.114149  
         H2        1.0000    0.27930   0.05890   0.42910   Biso      1.000     H          0.13750199999999999           
         H3        1.0000    0.72070   0.62980   0.05890   Biso      1.000     H          0.137505  
         H4        1.0000    0.56240   0.63520   0.52010   Biso      1.000     H          0.11413699999999999           
         H5        1.0000    0.72070   0.42910   0.37020   Biso      1.000     H          0.13750199999999999           
         H6        1.0000    0.56240   0.47990   0.11510   Biso      1.000     H          0.11414400000000001           
         H7        1.0000    0.72070   0.94110   0.57090   Biso      1.000     H          0.137509  
         H8        1.0000    0.43760   0.52010   0.88490   Biso      1.000     H          0.114147  
         H9        1.0000    0.27930   0.37020   0.94110   Biso      1.000     H          0.137496  
         H10       1.0000    0.43760   0.36480   0.47990   Biso      1.000     H          0.11413699999999999           
         H11       1.0000    0.27930   0.57090   0.62980   Biso      1.000     H          0.137505  
         H12       1.0000    0.56240   0.88490   0.36480   Biso      1.000     H          0.114146  
         O1        1.0000    0.07820   0.64910   0.08280   Biso      1.000     O          -0.575592           
         O2        1.0000    0.13710   0.51870   0.84050   Biso      1.000     O          -0.542113           
         O3        1.0000    0.26540   0.51200   0.16100   Biso      1.000     O          -0.342468           
         O4        1.0000    0.44090   0.39240   0.30350   Biso      1.000     O          -0.161073           
         O5        1.0000    0.13710   0.32180   0.48130   Biso      1.000     O          -0.54215  
         O6        1.0000    0.26540   0.64900   0.48800   Biso      1.000     O          -0.342464           
         O7        1.0000    0.44090   0.91110   0.60760   Biso      1.000     O          -0.161074           
         O8        1.0000    0.44090   0.69650   0.08890   Biso      1.000     O          -0.161063           
         O9        1.0000    0.07820   0.91720   0.56630   Biso      1.000     O          -0.5756180000000001           
         O10       1.0000    0.07820   0.43370   0.35090   Biso      1.000     O          -0.575603           
         O11       1.0000    0.73460   0.16100   0.64900   Biso      1.000     O          -0.342451           
         O12       1.0000    0.92180   0.56630   0.64910   Biso      1.000     O          -0.5756020000000001           
         O13       1.0000    0.92180   0.08280   0.43370   Biso      1.000     O          -0.5756180000000001           
         O14       1.0000    0.55910   0.08890   0.39240   Biso      1.000     O          -0.161072           
         O15       1.0000    0.73460   0.35100   0.51200   Biso      1.000     O          -0.342474           
         O16       1.0000    0.86290   0.67820   0.51870   Biso      1.000     O          -0.5421560000000001           
         O17       1.0000    0.55910   0.60760   0.69650   Biso      1.000     O          -0.16109  
         O18       1.0000    0.73460   0.48800   0.83900   Biso      1.000     O          -0.342443           
         O19       1.0000    0.86290   0.48130   0.15950   Biso      1.000     O          -0.542113           
         O20       1.0000    0.92180   0.35090   0.91720   Biso      1.000     O          -0.575591           
         O21       1.0000    0.55910   0.30350   0.91110   Biso      1.000     O          -0.161071           
         O22       1.0000    0.13710   0.15950   0.67820   Biso      1.000     O          -0.542129           
         O23       1.0000    0.86290   0.84050   0.32180   Biso      1.000     O          -0.542132           
         O24       1.0000    0.26540   0.83900   0.35100   Biso      1.000     O          -0.342491 