
##########################################################################
#               Crystallographic Information Format file
#               Produced by PyCifRW module
#
#  This is a CIF file.  CIF has been adopted by the International
#  Union of Crystallography as the standard for data archiving and
#  transmission.
#
#  For information on this file format, follow the CIF links at
#  http://www.iucr.org
##########################################################################

data_image0

_cell_length_a                          8.9084
_cell_length_b                          10.2182
_cell_length_c                          10.2182
_cell_angle_alpha                       120
_cell_angle_beta                        90
_cell_angle_gamma                       90
_symmetry_space_group_name_H-M          'P 1'
_symmetry_int_tables_number             1
loop_
  _symmetry_equiv_pos_as_xyz
         'x, y, z' 
loop_
  _atom_site_label
  _atom_site_occupancy
  _atom_site_fract_x
  _atom_site_fract_y
  _atom_site_fract_z
  _atom_site_thermal_displace_type
  _atom_site_B_iso_or_equiv
  _atom_site_type_symbol
  _atom_site_charge
         C1        1.0000    0.15510   0.02500   0.44580   Biso      1.000     C          0.62898   
         C2        1.0000    0.28340   0.53130   0.00900   Biso      1.000     C          -0.000998           
         C3        1.0000    0.15510   0.42080   0.97500   Biso      1.000     C          0.628995  
         C4        1.0000    0.43270   0.44940   0.98670   Biso      1.000     C          0.078936  
         C5        1.0000    0.28340   0.99100   0.52230   Biso      1.000     C          -0.001003           
         C6        1.0000    0.43270   0.01330   0.46270   Biso      1.000     C          0.078933  
         C7        1.0000    0.28340   0.47770   0.46870   Biso      1.000     C          -0.001009           
         C8        1.0000    0.15510   0.55420   0.57920   Biso      1.000     C          0.628986  
         C9        1.0000    0.43270   0.53730   0.55060   Biso      1.000     C          0.078933  
         C10       1.0000    0.71660   0.46870   0.99100   Biso      1.000     C          -0.001001           
         C11       1.0000    0.84490   0.57920   0.02500   Biso      1.000     C          0.628995  
         C12       1.0000    0.71660   0.00900   0.47770   Biso      1.000     C          -0.001006           
         C13       1.0000    0.84490   0.97500   0.55420   Biso      1.000     C          0.628975  
         C14       1.0000    0.56730   0.98670   0.53730   Biso      1.000     C          0.078941  
         C15       1.0000    0.71660   0.52230   0.53130   Biso      1.000     C          -0.00101  
         C16       1.0000    0.56730   0.55060   0.01330   Biso      1.000     C          0.078938  
         C17       1.0000    0.56730   0.46270   0.44940   Biso      1.000     C          0.078938  
         C18       1.0000    0.84490   0.44580   0.42080   Biso      1.000     C          0.628983  
         H1        1.0000    0.56300   0.48210   0.36480   Biso      1.000     H          0.114133  
         H2        1.0000    0.72200   0.63180   0.57270   Biso      1.000     H          0.137646  
         H3        1.0000    0.72200   0.94090   0.36820   Biso      1.000     H          0.13765   
         H4        1.0000    0.56300   0.63520   0.11730   Biso      1.000     H          0.114134  
         H5        1.0000    0.72200   0.42730   0.05910   Biso      1.000     H          0.137649  
         H6        1.0000    0.56300   0.88270   0.51790   Biso      1.000     H          0.11413   
         H7        1.0000    0.27800   0.36820   0.42730   Biso      1.000     H          0.137645  
         H8        1.0000    0.43700   0.11730   0.48210   Biso      1.000     H          0.114132  
         H9        1.0000    0.27800   0.05910   0.63180   Biso      1.000     H          0.137646  
         H10       1.0000    0.43700   0.36480   0.88270   Biso      1.000     H          0.114134  
         H11       1.0000    0.27800   0.57270   0.94090   Biso      1.000     H          0.137647  
         H12       1.0000    0.43700   0.51790   0.63520   Biso      1.000     H          0.114133  
         O1        1.0000    0.43950   0.69760   0.61010   Biso      1.000     O          -0.159609           
         O2        1.0000    0.07740   0.65010   0.56590   Biso      1.000     O          -0.578926           
         O3        1.0000    0.13290   0.51780   0.67750   Biso      1.000     O          -0.548431           
         O4        1.0000    0.26470   0.51170   0.34920   Biso      1.000     O          -0.35211  
         O5        1.0000    0.43950   0.91250   0.30240   Biso      1.000     O          -0.159615           
         O6        1.0000    0.26470   0.83750   0.48830   Biso      1.000     O          -0.352134           
         O7        1.0000    0.13290   0.15970   0.48220   Biso      1.000     O          -0.548415           
         O8        1.0000    0.07740   0.43410   0.08420   Biso      1.000     O          -0.578934           
         O9        1.0000    0.43950   0.38990   0.08750   Biso      1.000     O          -0.159608           
         O10       1.0000    0.73530   0.34920   0.83750   Biso      1.000     O          -0.352114           
         O11       1.0000    0.07740   0.91580   0.34990   Biso      1.000     O          -0.578927           
         O12       1.0000    0.86710   0.67750   0.15970   Biso      1.000     O          -0.54842  
         O13       1.0000    0.26470   0.65080   0.16250   Biso      1.000     O          -0.352125           
         O14       1.0000    0.56050   0.61010   0.91250   Biso      1.000     O          -0.159618           
         O15       1.0000    0.73530   0.16250   0.51170   Biso      1.000     O          -0.352125           
         O16       1.0000    0.86710   0.84030   0.51780   Biso      1.000     O          -0.548415           
         O17       1.0000    0.92260   0.08420   0.65010   Biso      1.000     O          -0.578925           
         O18       1.0000    0.56050   0.08750   0.69760   Biso      1.000     O          -0.15961  
         O19       1.0000    0.73530   0.48830   0.65080   Biso      1.000     O          -0.352116           
         O20       1.0000    0.86710   0.48220   0.32250   Biso      1.000     O          -0.54843  
         O21       1.0000    0.92260   0.34990   0.43410   Biso      1.000     O          -0.578927           
         O22       1.0000    0.56050   0.30240   0.38990   Biso      1.000     O          -0.159612           
         O23       1.0000    0.13290   0.32250   0.84030   Biso      1.000     O          -0.54842  
         O24       1.0000    0.92260   0.56590   0.91580   Biso      1.000     O          -0.578931           
         Pr1       1.0000    0.05196   0.66667   0.33334   Biso      1.000     Pr          2.04116   
         Pr2       1.0000    0.94804   0.33333   0.66666   Biso      1.000     Pr          2.041154 