
##########################################################################
#               Crystallographic Information Format file
#               Produced by PyCifRW module
#
#  This is a CIF file.  CIF has been adopted by the International
#  Union of Crystallography as the standard for data archiving and
#  transmission.
#
#  For information on this file format, follow the CIF links at
#  http://www.iucr.org
##########################################################################

data_image0

_cell_length_a                          9.75
_cell_length_b                          9.88
_cell_length_c                          9.88
_cell_angle_alpha                       90.36
_cell_angle_beta                        92.73
_cell_angle_gamma                       117.33
_symmetry_space_group_name_H-M          'P 1'
_symmetry_int_tables_number             1
loop_
  _symmetry_equiv_pos_as_xyz
         'x, y, z' 
loop_
  _atom_site_label
  _atom_site_occupancy
  _atom_site_fract_x
  _atom_site_fract_y
  _atom_site_fract_z
  _atom_site_thermal_displace_type
  _atom_site_B_iso_or_equiv
  _atom_site_type_symbol
  _atom_site_charge
         C1        1.0000    0.68210   0.25470   0.19420   Biso      1.000     C          0.096637  
         C2        1.0000    0.59790   0.93530   0.48820   Biso      1.000     C          -0.104189           
         C3        1.0000    0.40110   0.99080   0.39180   Biso      1.000     C          -0.120575           
         C4        1.0000    0.23470   0.39720   0.01190   Biso      1.000     C          0.5698    
         C5        1.0000    0.11100   0.44830   0.00690   Biso      1.000     C          -0.028355           
         C6        1.0000    0.11970   0.55850   0.09890   Biso      1.000     C          -0.102519           
         C7        1.0000    0.01000   0.61080   0.09250   Biso      1.000     C          -0.109376           
         C8        1.0000    0.39410   0.57160   0.73090   Biso      1.000     C          0.091534  
         C9        1.0000    0.29080   0.53250   0.61820   Biso      1.000     C          -0.18722  
         C10       1.0000    0.19830   0.60310   0.59950   Biso      1.000     C          0.190958  
         C11       1.0000    0.21320   0.71170   0.69520   Biso      1.000     C          -0.19462  
         C12       1.0000    0.31790   0.74530   0.80580   Biso      1.000     C          0.096637  
         C13       1.0000    0.08070   0.56000   0.48040   Biso      1.000     C          -0.234563           
         C14       1.0000    0.91930   0.44000   0.51960   Biso      1.000     C          -0.234564           
         C15       1.0000    0.50510   0.85070   0.24770   Biso      1.000     C          0.557377  
         C16       1.0000    0.78680   0.28830   0.30480   Biso      1.000     C          -0.194624           
         C17       1.0000    0.49840   0.92530   0.37900   Biso      1.000     C          -0.020025           
         C18       1.0000    0.70920   0.46750   0.38180   Biso      1.000     C          -0.187219           
         C19       1.0000    0.49490   0.14930   0.75230   Biso      1.000     C          0.557377  
         C20       1.0000    0.50160   0.07470   0.62100   Biso      1.000     C          -0.02003  
         C21       1.0000    0.80170   0.39690   0.40050   Biso      1.000     C          0.190961  
         C22       1.0000    0.59890   0.00920   0.60820   Biso      1.000     C          -0.120569           
         C23       1.0000    0.76530   0.60280   0.98810   Biso      1.000     C          0.5698    
         C24       1.0000    0.88900   0.55170   0.99310   Biso      1.000     C          -0.028356           
         C25       1.0000    0.40210   0.06470   0.51180   Biso      1.000     C          -0.104182           
         C26       1.0000    0.99000   0.38920   0.90750   Biso      1.000     C          -0.10938  
         C27       1.0000    0.60590   0.42840   0.26910   Biso      1.000     C          0.091534  
         C28       1.0000    0.88030   0.44150   0.90110   Biso      1.000     C          -0.102514           
         Cd1       1.0000    0.55663   0.72525   0.02187   Biso      1.000     Cd          0.934473  
         Cd2       1.0000    0.44337   0.27475   0.97813   Biso      1.000     Cd          0.934473  
         H1        1.0000    0.67230   0.88770   0.48220   Biso      1.000     H          0.107953  
         H2        1.0000    0.33770   0.98730   0.31280   Biso      1.000     H          0.117209  
         H3        1.0000    0.20690   0.60000   0.17030   Biso      1.000     H          0.109468  
         H4        1.0000    0.00310   0.67360   0.16040   Biso      1.000     H          0.118925  
         H5        1.0000    0.45710   0.52190   0.74210   Biso      1.000     H          0.104485  
         H6        1.0000    0.29800   0.45730   0.55670   Biso      1.000     H          0.135052  
         H7        1.0000    0.15520   0.76650   0.69330   Biso      1.000     H          0.136445  
         H8        1.0000    0.32630   0.82020   0.87080   Biso      1.000     H          0.102083  
         H9        1.0000    0.89400   0.49140   0.59250   Biso      1.000     H          0.126133  
         H10       1.0000    0.99690   0.32640   0.83960   Biso      1.000     H          0.118925  
         H11       1.0000    0.32770   0.11230   0.51780   Biso      1.000     H          0.107954  
         H12       1.0000    0.66230   0.01270   0.68720   Biso      1.000     H          0.117209  
         H13       1.0000    0.79310   0.40000   0.82970   Biso      1.000     H          0.109467  
         H14       1.0000    0.54290   0.47810   0.25790   Biso      1.000     H          0.104484  
         H15       1.0000    0.70200   0.54270   0.44330   Biso      1.000     H          0.13505   
         H16       1.0000    0.84480   0.23350   0.30670   Biso      1.000     H          0.136446  
         H17       1.0000    0.10600   0.50860   0.40750   Biso      1.000     H          0.126132  
         H18       1.0000    0.93460   0.34150   0.54270   Biso      1.000     H          0.117328  
         H19       1.0000    0.06540   0.65850   0.45730   Biso      1.000     H          0.117328  
         H20       1.0000    0.67370   0.17980   0.12920   Biso      1.000     H          0.102083  
         N1        1.0000    0.40790   0.67650   0.82460   Biso      1.000     N          -0.248915           
         N2        1.0000    0.59210   0.32350   0.17540   Biso      1.000     N          -0.248915           
         O1        1.0000    0.58240   0.77850   0.24860   Biso      1.000     O          -0.550611           
         O2        1.0000    0.43560   0.86340   0.14210   Biso      1.000     O          -0.576951           
         O3        1.0000    0.36030   0.47610   0.07910   Biso      1.000     O          -0.602084           
         O4        1.0000    0.78980   0.72300   0.05190   Biso      1.000     O          -0.535858           
         O5        1.0000    0.63970   0.52390   0.92090   Biso      1.000     O          -0.602084           
         O6        1.0000    0.56440   0.13660   0.85790   Biso      1.000     O          -0.576951           
         O7        1.0000    0.41760   0.22150   0.75140   Biso      1.000     O          -0.550611           
         O8        1.0000    0.21020   0.27700   0.94810   Biso      1.000     O          -0.535858 