
##########################################################################
#               Crystallographic Information Format file
#               Produced by PyCifRW module
#
#  This is a CIF file.  CIF has been adopted by the International
#  Union of Crystallography as the standard for data archiving and
#  transmission.
#
#  For information on this file format, follow the CIF links at
#  http://www.iucr.org
##########################################################################

data_image0

_cell_length_a                          9.45
_cell_length_b                          9.75
_cell_length_c                          10.29
_cell_angle_alpha                       96.11
_cell_angle_beta                        90.4
_cell_angle_gamma                       116.54
_symmetry_space_group_name_H-M          'P 1'
_symmetry_int_tables_number             1
loop_
  _symmetry_equiv_pos_as_xyz
         'x, y, z' 
loop_
  _atom_site_label
  _atom_site_occupancy
  _atom_site_fract_x
  _atom_site_fract_y
  _atom_site_fract_z
  _atom_site_thermal_displace_type
  _atom_site_B_iso_or_equiv
  _atom_site_type_symbol
  _atom_site_charge
         C1        1.0000    0.25500   0.80100   0.81840   Biso      1.000     C          0.10603   
         C2        1.0000    0.55600   0.89400   0.50130   Biso      1.000     C          -0.11614200000000001          
         C3        1.0000    0.51100   0.09300   0.61270   Biso      1.000     C          -0.10943499999999999          
         C4        1.0000    0.09900   0.25900   0.98510   Biso      1.000     C          0.577068  
         C5        1.0000    0.05130   0.38360   0.99150   Biso      1.000     C          -0.023612           
         C6        1.0000    0.94100   0.38270   0.89700   Biso      1.000     C          -0.10743699999999999          
         C7        1.0000    0.89300   0.49500   0.90600   Biso      1.000     C          -0.10523199999999999          
         C8        1.0000    0.91100   0.10600   0.26020   Biso      1.000     C          0.10084   
         C9        1.0000    0.94700   0.20600   0.37480   Biso      1.000     C          -0.193268           
         C10       1.0000    0.87900   0.30700   0.39120   Biso      1.000     C          0.196986  
         C11       1.0000    0.77700   0.29900   0.29250   Biso      1.000     C          -0.20338499999999998          
         C12       1.0000    0.74500   0.19900   0.18160   Biso      1.000     C          0.106044  
         C13       1.0000    0.92400   0.42300   0.51140   Biso      1.000     C          -0.24899899999999997          
         C14       1.0000    0.07600   0.57700   0.48860   Biso      1.000     C          -0.249    
         C15       1.0000    0.63600   0.97000   0.74020   Biso      1.000     C          0.550652  
         C16       1.0000    0.22300   0.70100   0.70750   Biso      1.000     C          -0.203376           
         C17       1.0000    0.56700   0.98750   0.61680   Biso      1.000     C          -0.012613           
         C18       1.0000    0.05300   0.79400   0.62520   Biso      1.000     C          -0.193268           
         C19       1.0000    0.36400   0.03000   0.25980   Biso      1.000     C          0.550654  
         C20       1.0000    0.43300   0.01250   0.38320   Biso      1.000     C          -0.012633           
         C21       1.0000    0.12100   0.69300   0.60880   Biso      1.000     C          0.19699   
         C22       1.0000    0.48900   0.90700   0.38730   Biso      1.000     C          -0.10940899999999999          
         C23       1.0000    0.90100   0.74100   0.01490   Biso      1.000     C          0.577068  
         C24       1.0000    0.94870   0.61640   0.00850   Biso      1.000     C          -0.023615999999999998         
         C25       1.0000    0.44400   0.10600   0.49870   Biso      1.000     C          -0.11613  
         C26       1.0000    0.10700   0.50500   0.09400   Biso      1.000     C          -0.105249           
         C27       1.0000    0.08900   0.89400   0.73980   Biso      1.000     C          0.10084   
         C28       1.0000    0.05900   0.61730   0.10300   Biso      1.000     C          -0.107421           
         Cd1       1.0000    0.76396   0.94242   0.97076   Biso      1.000     Cd          0.94084   
         Cd2       1.0000    0.23604   0.05758   0.02924   Biso      1.000     Cd          0.940841  
         H1        1.0000    0.60250   0.82770   0.50220   Biso      1.000     H          0.11515999999999998           
         H2        1.0000    0.52070   0.15700   0.69190   Biso      1.000     H          0.115569  
         H3        1.0000    0.90040   0.29980   0.82560   Biso      1.000     H          0.11264600000000001           
         H4        1.0000    0.81620   0.48980   0.84130   Biso      1.000     H          0.11865999999999999           
         H5        1.0000    0.95610   0.03440   0.25160   Biso      1.000     H          0.10432899999999999           
         H6        1.0000    0.01720   0.20450   0.44460   Biso      1.000     H          0.135081  
         H7        1.0000    0.72900   0.36390   0.30210   Biso      1.000     H          0.136163  
         H8        1.0000    0.67350   0.19740   0.11280   Biso      1.000     H          0.100779  
         H9        1.0000    0.16090   0.55700   0.46470   Biso      1.000     H          0.131883  
         H10       1.0000    0.18380   0.51020   0.15870   Biso      1.000     H          0.11866099999999999           
         H11       1.0000    0.39750   0.17230   0.49780   Biso      1.000     H          0.11515999999999998           
         H12       1.0000    0.47930   0.84300   0.30810   Biso      1.000     H          0.115568  
         H13       1.0000    0.09960   0.70020   0.17440   Biso      1.000     H          0.11264500000000001           
         H14       1.0000    0.04390   0.96560   0.74840   Biso      1.000     H          0.104328  
         H15       1.0000    0.98280   0.79550   0.55540   Biso      1.000     H          0.135081  
         H16       1.0000    0.27100   0.63610   0.69790   Biso      1.000     H          0.136163  
         H17       1.0000    0.83910   0.44300   0.53530   Biso      1.000     H          0.131884  
         H18       1.0000    0.04770   0.61970   0.41670   Biso      1.000     H          0.122767  
         H19       1.0000    0.95230   0.38030   0.58330   Biso      1.000     H          0.122768  
         H20       1.0000    0.32650   0.80260   0.88720   Biso      1.000     H          0.10078   
         N1        1.0000    0.81140   0.10180   0.16400   Biso      1.000     N          -0.260886           
         N2        1.0000    0.18860   0.89820   0.83600   Biso      1.000     N          -0.260884           
         O1        1.0000    0.69460   0.87500   0.73960   Biso      1.000     O          -0.567833           
         O2        1.0000    0.63730   0.04880   0.84600   Biso      1.000     O          -0.5792039999999999           
         O3        1.0000    0.01600   0.13040   0.91850   Biso      1.000     O          -0.603394           
         O4        1.0000    0.77750   0.71820   0.95000   Biso      1.000     O          -0.534034           
         O5        1.0000    0.98400   0.86960   0.08150   Biso      1.000     O          -0.603394           
         O6        1.0000    0.36270   0.95120   0.15400   Biso      1.000     O          -0.579205           
         O7        1.0000    0.30540   0.12500   0.26040   Biso      1.000     O          -0.5678340000000001           
         O8        1.0000    0.22250   0.28180   0.05000   Biso      1.000     O          -0.534034 