
##########################################################################
#               Crystallographic Information Format file
#               Produced by PyCifRW module
#
#  This is a CIF file.  CIF has been adopted by the International
#  Union of Crystallography as the standard for data archiving and
#  transmission.
#
#  For information on this file format, follow the CIF links at
#  http://www.iucr.org
##########################################################################

data_image0

_cell_length_a                          10.836
_cell_length_b                          14.962
_cell_length_c                          14.967
_cell_angle_alpha                       90
_cell_angle_beta                        92.494
_cell_angle_gamma                       90
_symmetry_space_group_name_H-M          'P 1'
_symmetry_int_tables_number             1
loop_
  _symmetry_equiv_pos_as_xyz
         'x, y, z' 
loop_
  _atom_site_label
  _atom_site_occupancy
  _atom_site_fract_x
  _atom_site_fract_y
  _atom_site_fract_z
  _atom_site_thermal_displace_type
  _atom_site_B_iso_or_equiv
  _atom_site_type_symbol
  _atom_site_charge
         C1        1.0000    0.45000   0.46680   0.50560   Biso      1.000     C          0.065456  
         C2        1.0000    0.62260   0.93540   0.71560   Biso      1.000     C          0.101379  
         C3        1.0000    0.51610   0.98500   0.70570   Biso      1.000     C          -0.135632           
         C4        1.0000    0.46740   0.00940   0.62010   Biso      1.000     C          -0.14892  
         C5        1.0000    0.68270   0.91980   0.80770   Biso      1.000     C          -0.171735           
         C6        1.0000    0.88080   0.00410   0.85240   Biso      1.000     C          0.089124  
         C7        1.0000    0.80410   0.13310   0.84970   Biso      1.000     C          0.14075   
         C8        1.0000    0.97580   0.32730   0.91190   Biso      1.000     C          0.587218  
         C9        1.0000    0.67390   0.90780   0.63980   Biso      1.000     C          -0.157872           
         C10       1.0000    0.98280   0.41520   0.96360   Biso      1.000     C          -0.044134           
         C11       1.0000    0.09200   0.43710   0.00910   Biso      1.000     C          -0.158193           
         C12       1.0000    0.76130   0.45540   0.91490   Biso      1.000     C          0.59295   
         C13       1.0000    0.70530   0.36230   0.70840   Biso      1.000     C          0.165665  
         C14       1.0000    0.58590   0.25430   0.69300   Biso      1.000     C          0.095024  
         C15       1.0000    0.64300   0.21170   0.53630   Biso      1.000     C          -0.181672           
         C16       1.0000    0.75460   0.15340   0.52680   Biso      1.000     C          0.117758  
         C17       1.0000    0.81460   0.11650   0.59830   Biso      1.000     C          -0.149381           
         C18       1.0000    0.88880   0.47800   0.95340   Biso      1.000     C          -0.044041           
         C19       1.0000    0.62610   0.93110   0.55530   Biso      1.000     C          -0.142197           
         C20       1.0000    0.52410   0.98470   0.54390   Biso      1.000     C          0.065659  
         C21       1.0000    0.29630   0.36540   0.44530   Biso      1.000     C          -0.142691           
         C22       1.0000    0.87740   0.43540   0.28440   Biso      1.000     C          0.101379  
         C23       1.0000    0.98390   0.48500   0.29430   Biso      1.000     C          -0.135632           
         C24       1.0000    0.03260   0.50940   0.37990   Biso      1.000     C          -0.14892  
         C25       1.0000    0.81730   0.41980   0.19230   Biso      1.000     C          -0.171736           
         C26       1.0000    0.61920   0.50410   0.14760   Biso      1.000     C          0.089124  
         C27       1.0000    0.69590   0.63310   0.15030   Biso      1.000     C          0.14075   
         C28       1.0000    0.52420   0.82730   0.08810   Biso      1.000     C          0.587218  
         C29       1.0000    0.51720   0.91520   0.03640   Biso      1.000     C          -0.044134           
         C30       1.0000    0.61120   0.97800   0.04660   Biso      1.000     C          -0.044041           
         C31       1.0000    0.40800   0.93710   0.99090   Biso      1.000     C          -0.158193           
         C32       1.0000    0.73870   0.95540   0.08510   Biso      1.000     C          0.59295   
         C33       1.0000    0.20530   0.13770   0.70840   Biso      1.000     C          0.165665  
         C34       1.0000    0.14300   0.28830   0.53630   Biso      1.000     C          -0.181672           
         C35       1.0000    0.25460   0.34660   0.52680   Biso      1.000     C          0.11777   
         C36       1.0000    0.31460   0.38350   0.59830   Biso      1.000     C          -0.149382           
         C37       1.0000    0.41190   0.44170   0.58880   Biso      1.000     C          -0.14106  
         C38       1.0000    0.39210   0.42520   0.43360   Biso      1.000     C          -0.138561           
         C39       1.0000    0.91190   0.05830   0.58880   Biso      1.000     C          -0.14106  
         C40       1.0000    0.82610   0.40780   0.36020   Biso      1.000     C          -0.157872           
         C41       1.0000    0.95000   0.03320   0.50560   Biso      1.000     C          0.065456  
         C42       1.0000    0.79630   0.13460   0.44530   Biso      1.000     C          -0.142677           
         C43       1.0000    0.60790   0.57480   0.56640   Biso      1.000     C          -0.138566           
         C44       1.0000    0.70370   0.63460   0.55470   Biso      1.000     C          -0.142693           
         C45       1.0000    0.47590   0.01530   0.45610   Biso      1.000     C          0.065647  
         C46       1.0000    0.37390   0.06890   0.44470   Biso      1.000     C          -0.142186           
         C47       1.0000    0.32610   0.09220   0.36020   Biso      1.000     C          -0.157892           
         C48       1.0000    0.37740   0.06460   0.28440   Biso      1.000     C          0.101397  
         C49       1.0000    0.48390   0.01500   0.29430   Biso      1.000     C          -0.135635           
         C50       1.0000    0.55000   0.53320   0.49440   Biso      1.000     C          0.065462  
         C51       1.0000    0.53260   0.99060   0.37990   Biso      1.000     C          -0.148915           
         C52       1.0000    0.11920   0.99590   0.14760   Biso      1.000     C          0.089124  
         C53       1.0000    0.19590   0.86690   0.15030   Biso      1.000     C          0.140751  
         C54       1.0000    0.02420   0.67270   0.08810   Biso      1.000     C          0.587218  
         C55       1.0000    0.01720   0.58480   0.03640   Biso      1.000     C          -0.044134           
         C56       1.0000    0.11120   0.52200   0.04660   Biso      1.000     C          -0.044041           
         C57       1.0000    0.90800   0.56290   0.99090   Biso      1.000     C          -0.158193           
         C58       1.0000    0.23870   0.54460   0.08510   Biso      1.000     C          0.59295   
         C59       1.0000    0.31730   0.08020   0.19230   Biso      1.000     C          -0.171737           
         C60       1.0000    0.58810   0.55830   0.41120   Biso      1.000     C          -0.141058           
         C61       1.0000    0.68540   0.61650   0.40170   Biso      1.000     C          -0.149404           
         C62       1.0000    0.74540   0.65340   0.47320   Biso      1.000     C          0.117789  
         C63       1.0000    0.02410   0.51530   0.54390   Biso      1.000     C          0.065647  
         C64       1.0000    0.12610   0.56890   0.55530   Biso      1.000     C          -0.142186           
         C65       1.0000    0.17390   0.59220   0.63980   Biso      1.000     C          -0.157892           
         C66       1.0000    0.12260   0.56460   0.71560   Biso      1.000     C          0.101398  
         C67       1.0000    0.01610   0.51500   0.70570   Biso      1.000     C          -0.135635           
         C68       1.0000    0.96740   0.49060   0.62010   Biso      1.000     C          -0.148915           
         C69       1.0000    0.18270   0.58020   0.80770   Biso      1.000     C          -0.171738           
         C70       1.0000    0.38080   0.49590   0.85240   Biso      1.000     C          0.089124  
         C71       1.0000    0.30410   0.36690   0.84970   Biso      1.000     C          0.14075   
         C72       1.0000    0.47580   0.17270   0.91190   Biso      1.000     C          0.587218  
         C73       1.0000    0.48280   0.08480   0.96360   Biso      1.000     C          -0.044134           
         C74       1.0000    0.38880   0.02200   0.95340   Biso      1.000     C          -0.044041           
         C75       1.0000    0.59200   0.06290   0.00910   Biso      1.000     C          -0.158193           
         C76       1.0000    0.26130   0.04460   0.91490   Biso      1.000     C          0.59295   
         C77       1.0000    0.79470   0.86230   0.29160   Biso      1.000     C          0.165666  
         C78       1.0000    0.91410   0.75430   0.30700   Biso      1.000     C          0.095025  
         C79       1.0000    0.85700   0.71170   0.46370   Biso      1.000     C          -0.181675           
         C80       1.0000    0.89210   0.07480   0.43360   Biso      1.000     C          -0.138563           
         C81       1.0000    0.87390   0.43110   0.44470   Biso      1.000     C          -0.142197           
         C82       1.0000    0.08590   0.24570   0.69300   Biso      1.000     C          0.095025  
         C83       1.0000    0.20370   0.86540   0.55470   Biso      1.000     C          -0.142692           
         C84       1.0000    0.10790   0.92520   0.56640   Biso      1.000     C          -0.138567           
         C85       1.0000    0.05000   0.96680   0.49440   Biso      1.000     C          0.065462  
         C86       1.0000    0.08810   0.94170   0.41120   Biso      1.000     C          -0.141057           
         C87       1.0000    0.18540   0.88350   0.40170   Biso      1.000     C          -0.149404           
         C88       1.0000    0.24540   0.84660   0.47320   Biso      1.000     C          0.117789  
         C89       1.0000    0.35700   0.78830   0.46370   Biso      1.000     C          -0.181674           
         C90       1.0000    0.41410   0.74570   0.30700   Biso      1.000     C          0.095025  
         C91       1.0000    0.29470   0.63770   0.29160   Biso      1.000     C          0.165665  
         C92       1.0000    0.97590   0.48470   0.45610   Biso      1.000     C          0.065659  
         H1        1.0000    0.06990   0.32580   0.53390   Biso      1.000     H          0.128327  
         H2        1.0000    0.13660   0.24780   0.48570   Biso      1.000     H          0.132501  
         H3        1.0000    0.28990   0.36940   0.65540   Biso      1.000     H          0.100747  
         H4        1.0000    0.45290   0.46450   0.63970   Biso      1.000     H          0.103915  
         H5        1.0000    0.25970   0.33730   0.39540   Biso      1.000     H          0.112838  
         H6        1.0000    0.66440   0.90970   0.50510   Biso      1.000     H          0.09615   
         H7        1.0000    0.62010   0.91310   0.85160   Biso      1.000     H          0.143024  
         H8        1.0000    0.47550   0.00280   0.75620   Biso      1.000     H          0.120076  
         H9        1.0000    0.39520   0.04300   0.61540   Biso      1.000     H          0.108901  
         H10       1.0000    0.02840   0.29050   0.70240   Biso      1.000     H          0.121462  
         H11       1.0000    0.73240   0.86590   0.80780   Biso      1.000     H          0.13778   
         H12       1.0000    0.93500   0.95610   0.85790   Biso      1.000     H          0.129551  
         H13       1.0000    0.79800   0.19490   0.85410   Biso      1.000     H          0.108911  
         H14       1.0000    0.74390   0.87180   0.64430   Biso      1.000     H          0.105362  
         H15       1.0000    0.24850   0.08980   0.73410   Biso      1.000     H          0.10557   
         H16       1.0000    0.87990   0.41310   0.14840   Biso      1.000     H          0.143024  
         H17       1.0000    0.70200   0.69490   0.14590   Biso      1.000     H          0.108911  
         H18       1.0000    0.25150   0.58980   0.26590   Biso      1.000     H          0.10557   
         H19       1.0000    0.47160   0.79050   0.29760   Biso      1.000     H          0.121462  
         H20       1.0000    0.43010   0.82580   0.46610   Biso      1.000     H          0.128327  
         H21       1.0000    0.36340   0.74780   0.51430   Biso      1.000     H          0.132501  
         H22       1.0000    0.21010   0.86940   0.34460   Biso      1.000     H          0.100749  
         H23       1.0000    0.04710   0.96450   0.36030   Biso      1.000     H          0.103915  
         H24       1.0000    0.08260   0.93720   0.62380   Biso      1.000     H          0.114909  
         H25       1.0000    0.24030   0.83730   0.60460   Biso      1.000     H          0.112838  
         H26       1.0000    0.83560   0.40970   0.49490   Biso      1.000     H          0.09615   
         H27       1.0000    0.75610   0.37180   0.35570   Biso      1.000     H          0.105362  
         H28       1.0000    0.02450   0.50280   0.24380   Biso      1.000     H          0.120076  
         H29       1.0000    0.10480   0.54300   0.38460   Biso      1.000     H          0.108901  
         H30       1.0000    0.15430   0.39460   0.01490   Biso      1.000     H          0.12556   
         H31       1.0000    0.76760   0.36590   0.19220   Biso      1.000     H          0.13778   
         H32       1.0000    0.56500   0.45610   0.14210   Biso      1.000     H          0.129551  
         H33       1.0000    0.34570   0.89460   0.98510   Biso      1.000     H          0.12556   
         H34       1.0000    0.74850   0.41020   0.73410   Biso      1.000     H          0.10557   
         H35       1.0000    0.41740   0.43720   0.37620   Biso      1.000     H          0.114908  
         H36       1.0000    0.56990   0.17420   0.53390   Biso      1.000     H          0.128327  
         H37       1.0000    0.84570   0.60540   0.98510   Biso      1.000     H          0.12556   
         H38       1.0000    0.52840   0.20950   0.70240   Biso      1.000     H          0.121462  
         H39       1.0000    0.06500   0.04390   0.14210   Biso      1.000     H          0.129551  
         H40       1.0000    0.26760   0.13410   0.19220   Biso      1.000     H          0.13778   
         H41       1.0000    0.37990   0.08690   0.14840   Biso      1.000     H          0.143025  
         H42       1.0000    0.60480   0.95700   0.38460   Biso      1.000     H          0.1089    
         H43       1.0000    0.52450   0.99720   0.24380   Biso      1.000     H          0.120076  
         H44       1.0000    0.25610   0.12820   0.35570   Biso      1.000     H          0.105364  
         H45       1.0000    0.33560   0.09030   0.49490   Biso      1.000     H          0.096149  
         H46       1.0000    0.74030   0.66270   0.60460   Biso      1.000     H          0.112838  
         H47       1.0000    0.58260   0.56280   0.62380   Biso      1.000     H          0.114909  
         H48       1.0000    0.54710   0.53550   0.36030   Biso      1.000     H          0.103915  
         H49       1.0000    0.71010   0.63060   0.34460   Biso      1.000     H          0.100749  
         H50       1.0000    0.86340   0.75220   0.51430   Biso      1.000     H          0.132502  
         H51       1.0000    0.93010   0.67420   0.46610   Biso      1.000     H          0.128327  
         H52       1.0000    0.20200   0.80510   0.14590   Biso      1.000     H          0.108911  
         H53       1.0000    0.75150   0.91020   0.26590   Biso      1.000     H          0.10557   
         H54       1.0000    0.97160   0.70950   0.29760   Biso      1.000     H          0.121462  
         H55       1.0000    0.63660   0.25220   0.48570   Biso      1.000     H          0.132501  
         H56       1.0000    0.78990   0.13060   0.65540   Biso      1.000     H          0.100747  
         H57       1.0000    0.91740   0.06280   0.37620   Biso      1.000     H          0.114908  
         H58       1.0000    0.75970   0.16270   0.39540   Biso      1.000     H          0.112837  
         H59       1.0000    0.16440   0.59030   0.50510   Biso      1.000     H          0.096149  
         H60       1.0000    0.24390   0.62820   0.64430   Biso      1.000     H          0.105364  
         H61       1.0000    0.95290   0.03550   0.63970   Biso      1.000     H          0.103915  
         H62       1.0000    0.89520   0.45700   0.61540   Biso      1.000     H          0.108901  
         H63       1.0000    0.12010   0.58690   0.85160   Biso      1.000     H          0.143024  
         H64       1.0000    0.23240   0.63410   0.80780   Biso      1.000     H          0.137781  
         H65       1.0000    0.43500   0.54390   0.85790   Biso      1.000     H          0.129551  
         H66       1.0000    0.29800   0.30510   0.85410   Biso      1.000     H          0.108911  
         H67       1.0000    0.65430   0.10540   0.01490   Biso      1.000     H          0.12556   
         H68       1.0000    0.97550   0.49720   0.75620   Biso      1.000     H          0.120076  
         N1        1.0000    0.62050   0.31720   0.75350   Biso      1.000     N          -0.305496           
         N2        1.0000    0.72410   0.33620   0.62800   Biso      1.000     N          -0.274695           
         N3        1.0000    0.64420   0.26490   0.61960   Biso      1.000     N          0.183057  
         N4        1.0000    0.41150   0.41100   0.86620   Biso      1.000     N          -0.300642           
         N5        1.0000    0.20890   0.41800   0.82710   Biso      1.000     N          -0.237574           
         N6        1.0000    0.77590   0.83620   0.37200   Biso      1.000     N          -0.274695           
         N7        1.0000    0.87950   0.81720   0.24650   Biso      1.000     N          -0.305497           
         N8        1.0000    0.85580   0.76490   0.38040   Biso      1.000     N          0.183057  
         N9        1.0000    0.08850   0.91100   0.13380   Biso      1.000     N          -0.300644           
         N10       1.0000    0.76080   0.99770   0.82950   Biso      1.000     N          0.178209  
         N11       1.0000    0.29110   0.91800   0.17290   Biso      1.000     N          -0.237574           
         N12       1.0000    0.23920   0.00230   0.17050   Biso      1.000     N          0.178212  
         N13       1.0000    0.26080   0.50230   0.82950   Biso      1.000     N          0.178212  
         N14       1.0000    0.70890   0.08200   0.82710   Biso      1.000     N          -0.237572           
         N15       1.0000    0.79110   0.58200   0.17290   Biso      1.000     N          -0.237574           
         N16       1.0000    0.14420   0.23510   0.61960   Biso      1.000     N          0.183051  
         N17       1.0000    0.22410   0.16380   0.62800   Biso      1.000     N          -0.274689           
         N18       1.0000    0.12050   0.18280   0.75350   Biso      1.000     N          -0.305496           
         N19       1.0000    0.73920   0.49770   0.17050   Biso      1.000     N          0.178212  
         N20       1.0000    0.58850   0.58900   0.13380   Biso      1.000     N          -0.300642           
         N21       1.0000    0.35580   0.73510   0.38040   Biso      1.000     N          0.183052  
         N22       1.0000    0.27590   0.66380   0.37200   Biso      1.000     N          -0.274689           
         N23       1.0000    0.37950   0.68280   0.24650   Biso      1.000     N          -0.305496           
         N24       1.0000    0.91150   0.08900   0.86620   Biso      1.000     N          -0.300642           
         O1        1.0000    0.71120   0.50480   0.85920   Biso      1.000     O          -0.58851  
         O2        1.0000    0.53700   0.23780   0.95100   Biso      1.000     O          -0.574269           
         O3        1.0000    0.42300   0.17700   0.83930   Biso      1.000     O          -0.562052           
         O4        1.0000    0.07700   0.67700   0.16070   Biso      1.000     O          -0.562053           
         O5        1.0000    0.71470   0.38480   0.94630   Biso      1.000     O          -0.56196  
         O6        1.0000    0.21120   0.99520   0.85920   Biso      1.000     O          -0.58851  
         O7        1.0000    0.96300   0.73780   0.04900   Biso      1.000     O          -0.57427  
         O8        1.0000    0.21470   0.11520   0.94630   Biso      1.000     O          -0.561961           
         O9        1.0000    0.92300   0.32300   0.83930   Biso      1.000     O          -0.562053           
         O10       1.0000    0.28880   0.49520   0.14080   Biso      1.000     O          -0.588511           
         O11       1.0000    0.78880   0.00480   0.14080   Biso      1.000     O          -0.588511           
         O12       1.0000    0.78530   0.88480   0.05370   Biso      1.000     O          -0.561961           
         O13       1.0000    0.57700   0.82300   0.16070   Biso      1.000     O          -0.562053           
         O14       1.0000    0.46300   0.76220   0.04900   Biso      1.000     O          -0.574269           
         O15       1.0000    0.28530   0.61520   0.05370   Biso      1.000     O          -0.561961           
         O16       1.0000    0.03700   0.26220   0.95100   Biso      1.000     O          -0.574269           
         Zn1       1.0000    0.92952   0.84239   0.12123   Biso      1.000     Zn          0.783447  
         Zn2       1.0000    0.57048   0.34239   0.87877   Biso      1.000     Zn          0.783443  
         Zn3       1.0000    0.07048   0.15761   0.87877   Biso      1.000     Zn          0.783443  
         Zn4       1.0000    0.42952   0.65761   0.12123   Biso      1.000     Zn          0.783444 