
##########################################################################
#               Crystallographic Information Format file
#               Produced by PyCifRW module
#
#  This is a CIF file.  CIF has been adopted by the International
#  Union of Crystallography as the standard for data archiving and
#  transmission.
#
#  For information on this file format, follow the CIF links at
#  http://www.iucr.org
##########################################################################

data_image0

_cell_length_a                          11.5539
_cell_length_b                          15.4228
_cell_length_c                          17.686
_cell_angle_alpha                       114.095
_cell_angle_beta                        90
_cell_angle_gamma                       111.998
_symmetry_space_group_name_H-M          'P 1'
_symmetry_int_tables_number             1
loop_
  _symmetry_equiv_pos_as_xyz
         'x, y, z' 
loop_
  _atom_site_label
  _atom_site_occupancy
  _atom_site_fract_x
  _atom_site_fract_y
  _atom_site_fract_z
  _atom_site_thermal_displace_type
  _atom_site_B_iso_or_equiv
  _atom_site_type_symbol
  _atom_site_charge
         C1        1.0000    0.56310   0.08240   0.87240   Biso      1.000     C          0.066825  
         C2        1.0000    0.64360   0.35200   0.82940   Biso      1.000     C          -0.180979           
         C3        1.0000    0.61250   0.26060   0.84610   Biso      1.000     C          0.109395  
         C4        1.0000    0.48870   0.18720   0.83180   Biso      1.000     C          -0.16683  
         C5        1.0000    0.46470   0.09980   0.84460   Biso      1.000     C          -0.136658           
         C6        1.0000    0.68390   0.15940   0.89220   Biso      1.000     C          -0.132981           
         C7        1.0000    0.70800   0.24680   0.87900   Biso      1.000     C          -0.146336           
         C8        1.0000    0.53820   0.98700   0.88450   Biso      1.000     C          0.066609  
         C9        1.0000    0.42110   0.92780   0.89390   Biso      1.000     C          -0.133303           
         C10       1.0000    0.40150   0.83900   0.90600   Biso      1.000     C          -0.157548           
         C11       1.0000    0.49680   0.80920   0.90860   Biso      1.000     C          0.110076  
         C12       1.0000    0.61530   0.86820   0.89910   Biso      1.000     C          -0.167267           
         C13       1.0000    0.63310   0.95360   0.88630   Biso      1.000     C          -0.123728           
         C14       1.0000    0.47300   0.71520   0.92420   Biso      1.000     C          -0.179876           
         C15       1.0000    0.61830   0.64240   0.84010   Biso      1.000     C          0.09301   
         C16       1.0000    0.75410   0.67400   0.93690   Biso      1.000     C          0.131805  
         C17       1.0000    0.12500   0.47360   0.85600   Biso      1.000     C          0.566558  
         C18       1.0000    0.05860   0.48640   0.92890   Biso      1.000     C          -0.032765           
         C19       1.0000    0.99780   0.55380   0.95340   Biso      1.000     C          -0.021703           
         C20       1.0000    0.05860   0.43240   0.97610   Biso      1.000     C          -0.159472           
         C21       1.0000    0.46290   0.37460   0.77150   Biso      1.000     C          0.091451  
         C22       1.0000    0.98440   0.61020   0.90320   Biso      1.000     C          0.581491  
         C23       1.0000    0.40260   0.43500   0.88400   Biso      1.000     C          0.13778   
         C24       1.0000    0.62620   0.56760   0.52390   Biso      1.000     C          -0.158762           
         C25       1.0000    0.08010   0.32600   0.56310   Biso      1.000     C          0.131214  
         C26       1.0000    0.97590   0.35760   0.65990   Biso      1.000     C          0.093299  
         C27       1.0000    0.75780   0.28480   0.57580   Biso      1.000     C          -0.182541           
         C28       1.0000    0.67950   0.04640   0.61370   Biso      1.000     C          -0.123023           
         C29       1.0000    0.74710   0.13180   0.60090   Biso      1.000     C          -0.169592           
         C30       1.0000    0.68760   0.19080   0.59140   Biso      1.000     C          0.109995  
         C31       1.0000    0.56250   0.16100   0.59400   Biso      1.000     C          -0.156368           
         C32       1.0000    0.49330   0.07220   0.60610   Biso      1.000     C          -0.131394           
         C33       1.0000    0.55120   0.01300   0.61550   Biso      1.000     C          0.066488  
         C34       1.0000    0.46120   0.75320   0.62100   Biso      1.000     C          -0.147175           
         C35       1.0000    0.52450   0.84060   0.60780   Biso      1.000     C          -0.132439           
         C36       1.0000    0.48070   0.91760   0.62760   Biso      1.000     C          0.065873  
         C37       1.0000    0.36490   0.90020   0.65540   Biso      1.000     C          -0.134922           
         C38       1.0000    0.30150   0.81280   0.66820   Biso      1.000     C          -0.165261           
         C39       1.0000    0.35190   0.73940   0.65390   Biso      1.000     C          0.110609  
         C40       1.0000    0.29160   0.64800   0.67060   Biso      1.000     C          -0.183344           
         C41       1.0000    0.08830   0.62540   0.72850   Biso      1.000     C          0.091068  
         C42       1.0000    0.96760   0.56500   0.61600   Biso      1.000     C          0.140926  
         C43       1.0000    0.44400   0.44620   0.54660   Biso      1.000     C          -0.020945           
         C44       1.0000    0.37420   0.38980   0.59680   Biso      1.000     C          0.581149  
         C45       1.0000    0.03240   0.43500   0.38400   Biso      1.000     C          0.140928  
         C46       1.0000    0.91170   0.37460   0.27150   Biso      1.000     C          0.091069  
         C47       1.0000    0.70840   0.35200   0.32940   Biso      1.000     C          -0.183343           
         C48       1.0000    0.51130   0.81280   0.16820   Biso      1.000     C          -0.166833           
         C49       1.0000    0.53530   0.90020   0.15540   Biso      1.000     C          -0.136661           
         C50       1.0000    0.43690   0.91760   0.12760   Biso      1.000     C          0.066824  
         C51       1.0000    0.31610   0.84060   0.10780   Biso      1.000     C          -0.132981           
         C52       1.0000    0.29200   0.75320   0.12100   Biso      1.000     C          -0.146344           
         C53       1.0000    0.46180   0.01300   0.11550   Biso      1.000     C          0.066608  
         C54       1.0000    0.57890   0.07220   0.10610   Biso      1.000     C          -0.133307           
         C55       1.0000    0.59850   0.16100   0.09400   Biso      1.000     C          -0.157552           
         C56       1.0000    0.50320   0.19080   0.09140   Biso      1.000     C          0.110075  
         C57       1.0000    0.38470   0.13180   0.10090   Biso      1.000     C          -0.167268           
         C58       1.0000    0.36690   0.04640   0.11370   Biso      1.000     C          -0.123729           
         C59       1.0000    0.52700   0.28480   0.07580   Biso      1.000     C          -0.179877           
         C60       1.0000    0.38170   0.35760   0.15990   Biso      1.000     C          0.09301   
         C61       1.0000    0.24590   0.32600   0.06310   Biso      1.000     C          0.131804  
         C62       1.0000    0.87500   0.52640   0.14400   Biso      1.000     C          0.566558  
         C63       1.0000    0.94140   0.51360   0.07110   Biso      1.000     C          -0.032766           
         C64       1.0000    0.00220   0.44620   0.04660   Biso      1.000     C          -0.021702           
         C65       1.0000    0.94140   0.56760   0.02390   Biso      1.000     C          -0.15947  
         C66       1.0000    0.01560   0.38980   0.09680   Biso      1.000     C          0.581491  
         C67       1.0000    0.38750   0.73940   0.15390   Biso      1.000     C          0.109399  
         C68       1.0000    0.35640   0.64800   0.17060   Biso      1.000     C          -0.180979           
         C69       1.0000    0.53710   0.62540   0.22850   Biso      1.000     C          0.091451  
         C70       1.0000    0.59740   0.56500   0.11600   Biso      1.000     C          0.137777  
         C71       1.0000    0.64810   0.26060   0.34610   Biso      1.000     C          0.110604  
         C72       1.0000    0.69850   0.18720   0.33180   Biso      1.000     C          -0.16526  
         C73       1.0000    0.63510   0.09980   0.34460   Biso      1.000     C          -0.134918           
         C74       1.0000    0.51930   0.08240   0.37240   Biso      1.000     C          0.065874  
         C75       1.0000    0.47550   0.15940   0.39220   Biso      1.000     C          -0.132439           
         C76       1.0000    0.53880   0.24680   0.37900   Biso      1.000     C          -0.147166           
         C77       1.0000    0.44880   0.98700   0.38450   Biso      1.000     C          0.066482  
         C78       1.0000    0.50670   0.92780   0.39390   Biso      1.000     C          -0.131384           
         C79       1.0000    0.43750   0.83900   0.40600   Biso      1.000     C          -0.156383           
         C80       1.0000    0.65140   0.52640   0.64400   Biso      1.000     C          0.568008  
         C81       1.0000    0.31240   0.80920   0.40860   Biso      1.000     C          0.110013  
         C82       1.0000    0.32050   0.95360   0.38630   Biso      1.000     C          -0.123019           
         C83       1.0000    0.24220   0.71520   0.42420   Biso      1.000     C          -0.18254  
         C84       1.0000    0.02410   0.64240   0.34010   Biso      1.000     C          0.0933    
         C85       1.0000    0.91990   0.67400   0.43690   Biso      1.000     C          0.131212  
         C86       1.0000    0.34860   0.47360   0.35600   Biso      1.000     C          0.568008  
         C87       1.0000    0.42780   0.48640   0.42890   Biso      1.000     C          -0.034366           
         C88       1.0000    0.55600   0.55380   0.45340   Biso      1.000     C          -0.020945           
         C89       1.0000    0.37380   0.43240   0.47610   Biso      1.000     C          -0.158764           
         C90       1.0000    0.62580   0.61020   0.40320   Biso      1.000     C          0.581149  
         C91       1.0000    0.25290   0.86820   0.39910   Biso      1.000     C          -0.169593           
         C92       1.0000    0.57220   0.51360   0.57110   Biso      1.000     C          -0.034367           
         Cu1       1.0000    0.83723   0.60182   0.77019   Biso      1.000     Cu          0.762727  
         Cu2       1.0000    0.23541   0.39818   0.72981   Biso      1.000     Cu          0.762434  
         Cu3       1.0000    0.16277   0.39818   0.22981   Biso      1.000     Cu          0.762725  
         Cu4       1.0000    0.76459   0.60182   0.27019   Biso      1.000     Cu          0.762436  
         H1        1.0000    0.17790   0.32560   0.03460   Biso      1.000     H          0.114707  
         H2        1.0000    0.35570   0.46220   0.92220   Biso      1.000     H          0.10095   
         H3        1.0000    0.47120   0.34940   0.71520   Biso      1.000     H          0.122158  
         H4        1.0000    0.66640   0.33600   0.77400   Biso      1.000     H          0.134936  
         H5        1.0000    0.71690   0.40960   0.87030   Biso      1.000     H          0.127555  
         H6        1.0000    0.42140   0.19720   0.81340   Biso      1.000     H          0.112693  
         H7        1.0000    0.38130   0.05160   0.83450   Biso      1.000     H          0.113394  
         H8        1.0000    0.79080   0.29720   0.89270   Biso      1.000     H          0.112404  
         H9        1.0000    0.71130   0.61360   0.54030   Biso      1.000     H          0.126458  
         H10       1.0000    0.35400   0.94680   0.89230   Biso      1.000     H          0.113154  
         H11       1.0000    0.32150   0.80000   0.91220   Biso      1.000     H          0.124805  
         H12       1.0000    0.68270   0.84980   0.90160   Biso      1.000     H          0.11293   
         H13       1.0000    0.71270   0.99080   0.87830   Biso      1.000     H          0.114364  
         H14       1.0000    0.39660   0.65760   0.88660   Biso      1.000     H          0.133892  
         H15       1.0000    0.75070   0.15260   0.91500   Biso      1.000     H          0.11762   
         H16       1.0000    0.14770   0.32560   0.53460   Biso      1.000     H          0.114577  
         H17       1.0000    0.72790   0.26900   0.51840   Biso      1.000     H          0.138549  
         H18       1.0000    0.45890   0.73100   0.98160   Biso      1.000     H          0.138043  
         H19       1.0000    0.90230   0.61360   0.04030   Biso      1.000     H          0.126617  
         H20       1.0000    0.72190   0.00920   0.62170   Biso      1.000     H          0.114614  
         H21       1.0000    0.83290   0.15020   0.59840   Biso      1.000     H          0.114419  
         H22       1.0000    0.52150   0.20000   0.58780   Biso      1.000     H          0.123817  
         H23       1.0000    0.40720   0.05320   0.60770   Biso      1.000     H          0.111709  
         H24       1.0000    0.49360   0.70280   0.60730   Biso      1.000     H          0.112049  
         H25       1.0000    0.59810   0.84740   0.58500   Biso      1.000     H          0.117207  
         H26       1.0000    0.32970   0.94840   0.66550   Biso      1.000     H          0.111917  
         H27       1.0000    0.22420   0.80280   0.68660   Biso      1.000     H          0.111542  
         H28       1.0000    0.30730   0.59040   0.62970   Biso      1.000     H          0.128863  
         H29       1.0000    0.33040   0.66400   0.72600   Biso      1.000     H          0.13527   
         H30       1.0000    0.12180   0.65060   0.78480   Biso      1.000     H          0.122403  
         H31       1.0000    0.89350   0.53780   0.57780   Biso      1.000     H          0.099265  
         H32       1.0000    0.95420   0.38060   0.71300   Biso      1.000     H          0.111596  
         H33       1.0000    0.57360   0.61940   0.78700   Biso      1.000     H          0.111867  
         H34       1.0000    0.73900   0.34240   0.61340   Biso      1.000     H          0.135048  
         H35       1.0000    0.09770   0.38640   0.95970   Biso      1.000     H          0.126618  
         H36       1.0000    0.52880   0.65060   0.28480   Biso      1.000     H          0.122158  
         H37       1.0000    0.33360   0.66400   0.22600   Biso      1.000     H          0.134936  
         H38       1.0000    0.28310   0.59040   0.12970   Biso      1.000     H          0.127555  
         H39       1.0000    0.61870   0.94840   0.16550   Biso      1.000     H          0.113394  
         H40       1.0000    0.24930   0.84740   0.08500   Biso      1.000     H          0.117619  
         H41       1.0000    0.20920   0.70280   0.10730   Biso      1.000     H          0.112405  
         H42       1.0000    0.64430   0.53780   0.07780   Biso      1.000     H          0.10095   
         H43       1.0000    0.64600   0.05320   0.10770   Biso      1.000     H          0.113154  
         H44       1.0000    0.31730   0.15020   0.09840   Biso      1.000     H          0.112927  
         H45       1.0000    0.28730   0.00920   0.12170   Biso      1.000     H          0.114358  
         H46       1.0000    0.60340   0.34240   0.11340   Biso      1.000     H          0.133892  
         H47       1.0000    0.54110   0.26900   0.01840   Biso      1.000     H          0.138043  
         H48       1.0000    0.42640   0.38060   0.21300   Biso      1.000     H          0.111866  
         H49       1.0000    0.82210   0.67440   0.96540   Biso      1.000     H          0.114706  
         H50       1.0000    0.67850   0.20000   0.08780   Biso      1.000     H          0.124805  
         H51       1.0000    0.28870   0.38640   0.45970   Biso      1.000     H          0.126459  
         H52       1.0000    0.57860   0.80280   0.18660   Biso      1.000     H          0.112692  
         H53       1.0000    0.04580   0.61940   0.28700   Biso      1.000     H          0.111597  
         H54       1.0000    0.10650   0.46220   0.42220   Biso      1.000     H          0.099265  
         H55       1.0000    0.87820   0.34940   0.21520   Biso      1.000     H          0.122404  
         H56       1.0000    0.66960   0.33600   0.27400   Biso      1.000     H          0.13527   
         H57       1.0000    0.85230   0.67440   0.46540   Biso      1.000     H          0.114577  
         H58       1.0000    0.77580   0.19720   0.31340   Biso      1.000     H          0.111543  
         H59       1.0000    0.67030   0.05160   0.33450   Biso      1.000     H          0.111918  
         H60       1.0000    0.40190   0.15260   0.41500   Biso      1.000     H          0.117208  
         H61       1.0000    0.50640   0.29720   0.39270   Biso      1.000     H          0.112049  
         H62       1.0000    0.69270   0.40960   0.37030   Biso      1.000     H          0.128863  
         H63       1.0000    0.59280   0.94680   0.39230   Biso      1.000     H          0.111707  
         H64       1.0000    0.26100   0.65760   0.38660   Biso      1.000     H          0.135048  
         H65       1.0000    0.27810   0.99080   0.37830   Biso      1.000     H          0.11462   
         H66       1.0000    0.27210   0.73100   0.48160   Biso      1.000     H          0.138549  
         H67       1.0000    0.16710   0.84980   0.40160   Biso      1.000     H          0.114423  
         H68       1.0000    0.47850   0.80000   0.41220   Biso      1.000     H          0.123819  
         N1        1.0000    0.32970   0.29220   0.02890   Biso      1.000     N          -0.280912           
         N2        1.0000    0.27559   0.36238   0.14760   Biso      1.000     N          -0.312803           
         N3        1.0000    0.42107   0.31634   0.08860   Biso      1.000     N          0.205969  
         N4        1.0000    0.46061   0.61582   0.16690   Biso      1.000     N          0.190255  
         N5        1.0000    0.50010   0.57680   0.09340   Biso      1.000     N          -0.253096           
         N6        1.0000    0.62559   0.59478   0.19930   Biso      1.000     N          -0.314308           
         N7        1.0000    0.10473   0.68366   0.41140   Biso      1.000     N          0.206296  
         N8        1.0000    0.03750   0.70780   0.47110   Biso      1.000     N          -0.280184           
         N9        1.0000    0.91321   0.63762   0.35240   Biso      1.000     N          -0.312229           
         N10       1.0000    0.84479   0.38418   0.33310   Biso      1.000     N          0.191745  
         N11       1.0000    0.92330   0.42320   0.40660   Biso      1.000     N          -0.254468           
         N12       1.0000    0.03081   0.40522   0.30070   Biso      1.000     N          -0.315316           
         N13       1.0000    0.15521   0.61582   0.66690   Biso      1.000     N          0.191745  
         N14       1.0000    0.67030   0.70780   0.97110   Biso      1.000     N          -0.280912           
         N15       1.0000    0.57893   0.68366   0.91140   Biso      1.000     N          0.205968  
         N16       1.0000    0.96919   0.59478   0.69930   Biso      1.000     N          -0.315316           
         N17       1.0000    0.08679   0.36238   0.64760   Biso      1.000     N          -0.312228           
         N18       1.0000    0.96250   0.29220   0.52890   Biso      1.000     N          -0.280212           
         N19       1.0000    0.07670   0.57680   0.59340   Biso      1.000     N          -0.25447  
         N20       1.0000    0.37441   0.40522   0.80070   Biso      1.000     N          -0.314308           
         N21       1.0000    0.49990   0.42320   0.90660   Biso      1.000     N          -0.253109           
         N22       1.0000    0.53939   0.38418   0.83310   Biso      1.000     N          0.190269  
         N23       1.0000    0.72441   0.63762   0.85240   Biso      1.000     N          -0.312803           
         N24       1.0000    0.89527   0.31634   0.58860   Biso      1.000     N          0.206322  
         O1        1.0000    0.25715   0.38310   0.31360   Biso      1.000     O          -0.550112           
         O2        1.0000    0.82009   0.45298   0.16080   Biso      1.000     O          -0.566187           
         O3        1.0000    0.87405   0.61690   0.18640   Biso      1.000     O          -0.548926           
         O4        1.0000    0.66173   0.70426   0.42990   Biso      1.000     O          -0.555901           
         O5        1.0000    0.64294   0.54848   0.33390   Biso      1.000     O          -0.573773           
         O6        1.0000    0.36711   0.54702   0.33920   Biso      1.000     O          -0.566421           
         O7        1.0000    0.04253   0.70426   0.92990   Biso      1.000     O          -0.556229           
         O8        1.0000    0.35706   0.45152   0.66610   Biso      1.000     O          -0.573773           
         O9        1.0000    0.17991   0.54702   0.83920   Biso      1.000     O          -0.566187           
         O10       1.0000    0.12595   0.38310   0.81360   Biso      1.000     O          -0.548926           
         O11       1.0000    0.33827   0.29574   0.57010   Biso      1.000     O          -0.5559   
         O12       1.0000    0.63289   0.45298   0.66080   Biso      1.000     O          -0.566421           
         O13       1.0000    0.74285   0.61690   0.68640   Biso      1.000     O          -0.550112           
         O14       1.0000    0.09446   0.45152   0.16610   Biso      1.000     O          -0.574001           
         O15       1.0000    0.90554   0.54848   0.83390   Biso      1.000     O          -0.574002           
         O16       1.0000    0.95747   0.29574   0.07010   Biso      1.000     O          -0.556229 