
##########################################################################
#               Crystallographic Information Format file
#               Produced by PyCifRW module
#
#  This is a CIF file.  CIF has been adopted by the International
#  Union of Crystallography as the standard for data archiving and
#  transmission.
#
#  For information on this file format, follow the CIF links at
#  http://www.iucr.org
##########################################################################

data_image0

_cell_length_a                          14.5755
_cell_length_b                          14.5755
_cell_length_c                          14.5755
_cell_angle_alpha                       109.471
_cell_angle_beta                        109.471
_cell_angle_gamma                       109.471
_symmetry_space_group_name_H-M          'P 1'
_symmetry_int_tables_number             1
loop_
  _symmetry_equiv_pos_as_xyz
         'x, y, z' 
loop_
  _atom_site_label
  _atom_site_occupancy
  _atom_site_fract_x
  _atom_site_fract_y
  _atom_site_fract_z
  _atom_site_thermal_displace_type
  _atom_site_B_iso_or_equiv
  _atom_site_type_symbol
  _atom_site_charge
         C1        1.0000    0.26540   0.57420   0.05620   Biso      1.000     C          -0.084133           
         C2        1.0000    0.05620   0.57420   0.26540   Biso      1.000     C          -0.084133           
         C3        1.0000    0.69120   0.42580   0.48200   Biso      1.000     C          -0.084134           
         C4        1.0000    0.51800   0.94380   0.20920   Biso      1.000     C          -0.084143           
         C5        1.0000    0.73460   0.30880   0.79080   Biso      1.000     C          -0.084122           
         C6        1.0000    0.48200   0.69120   0.42580   Biso      1.000     C          -0.084134           
         C7        1.0000    0.26540   0.05620   0.57420   Biso      1.000     C          -0.084133           
         C8        1.0000    0.94380   0.20920   0.51800   Biso      1.000     C          -0.084142           
         C9        1.0000    0.51800   0.20920   0.94380   Biso      1.000     C          -0.084143           
         C10       1.0000    0.48200   0.42580   0.69120   Biso      1.000     C          -0.084134           
         C11       1.0000    0.57420   0.05620   0.26540   Biso      1.000     C          -0.084082           
         C12       1.0000    0.42580   0.69120   0.48200   Biso      1.000     C          -0.084083           
         C13       1.0000    0.79080   0.30880   0.73460   Biso      1.000     C          -0.084071           
         C14       1.0000    0.20920   0.94380   0.51800   Biso      1.000     C          -0.084091           
         C15       1.0000    0.30880   0.73460   0.79080   Biso      1.000     C          -0.084122           
         C16       1.0000    0.73460   0.79080   0.30880   Biso      1.000     C          -0.084122           
         C17       1.0000    0.94380   0.51800   0.20920   Biso      1.000     C          -0.084091           
         C18       1.0000    0.30880   0.79080   0.73460   Biso      1.000     C          -0.084071           
         C19       1.0000    0.79080   0.73460   0.30880   Biso      1.000     C          -0.084071           
         C20       1.0000    0.61673   0.37547   0.00000   Biso      1.000     C          0.147299  
         C21       1.0000    0.62453   0.62453   0.24126   Biso      1.000     C          0.147312  
         C22       1.0000    0.38327   0.38327   0.75874   Biso      1.000     C          0.147275  
         C23       1.0000    0.37547   0.61673   0.00000   Biso      1.000     C          0.1473    
         C24       1.0000    0.61673   0.00000   0.37547   Biso      1.000     C          0.147299  
         C25       1.0000    0.38327   0.75874   0.38327   Biso      1.000     C          0.147276  
         C26       1.0000    0.20920   0.51800   0.94380   Biso      1.000     C          -0.084091           
         C27       1.0000    0.62453   0.24126   0.62453   Biso      1.000     C          0.147312  
         C28       1.0000    0.24126   0.62453   0.62453   Biso      1.000     C          0.147312  
         C29       1.0000    0.00000   0.61673   0.37547   Biso      1.000     C          0.147299  
         C30       1.0000    0.00000   0.37547   0.61673   Biso      1.000     C          0.147299  
         C31       1.0000    0.75874   0.38327   0.38327   Biso      1.000     C          0.147275  
         C32       1.0000    0.57420   0.26540   0.05620   Biso      1.000     C          -0.084082           
         C33       1.0000    0.42580   0.48200   0.69120   Biso      1.000     C          -0.084083           
         C34       1.0000    0.37547   0.00000   0.61673   Biso      1.000     C          0.147299  
         C35       1.0000    0.05620   0.26540   0.57420   Biso      1.000     C          -0.084082           
         C36       1.0000    0.69120   0.48200   0.42580   Biso      1.000     C          -0.084083           
         H1        1.0000    0.35840   0.80300   0.35840   Biso      1.000     H          0.063281  
         H2        1.0000    0.46270   0.89760   0.13170   Biso      1.000     H          0.10304   
         H3        1.0000    0.76590   0.33100   0.86830   Biso      1.000     H          0.10305   
         H4        1.0000    0.53730   0.66900   0.43490   Biso      1.000     H          0.103043  
         H5        1.0000    0.55540   0.19700   0.55540   Biso      1.000     H          0.063279  
         H6        1.0000    0.46270   0.13170   0.89760   Biso      1.000     H          0.10304   
         H7        1.0000    0.76590   0.86830   0.33100   Biso      1.000     H          0.10305   
         H8        1.0000    0.53730   0.43490   0.66900   Biso      1.000     H          0.103043  
         H9        1.0000    0.66900   0.43490   0.53730   Biso      1.000     H          0.103043  
         H10       1.0000    0.23410   0.56510   0.10240   Biso      1.000     H          0.103039  
         H11       1.0000    0.43490   0.66900   0.53730   Biso      1.000     H          0.103039  
         H12       1.0000    0.86830   0.33100   0.76590   Biso      1.000     H          0.103046  
         H13       1.0000    0.13170   0.89760   0.46270   Biso      1.000     H          0.103036  
         H14       1.0000    0.33100   0.76590   0.86830   Biso      1.000     H          0.10305   
         H15       1.0000    0.89760   0.46270   0.13170   Biso      1.000     H          0.103036  
         H16       1.0000    0.10240   0.23410   0.56510   Biso      1.000     H          0.103035  
         H17       1.0000    0.66900   0.53730   0.43490   Biso      1.000     H          0.103039  
         H18       1.0000    0.56510   0.10240   0.23410   Biso      1.000     H          0.103036  
         H19       1.0000    0.10240   0.56510   0.23410   Biso      1.000     H          0.103039  
         H20       1.0000    0.23410   0.10240   0.56510   Biso      1.000     H          0.103039  
         H21       1.0000    0.33100   0.86830   0.76590   Biso      1.000     H          0.103046  
         H22       1.0000    0.64160   0.00000   0.44460   Biso      1.000     H          0.063276  
         H23       1.0000    0.44460   0.64160   0.00000   Biso      1.000     H          0.063276  
         H24       1.0000    0.89760   0.13170   0.46270   Biso      1.000     H          0.10304   
         H25       1.0000    0.55540   0.55540   0.19700   Biso      1.000     H          0.063279  
         H26       1.0000    0.64160   0.44460   0.00000   Biso      1.000     H          0.063275  
         H27       1.0000    0.44460   0.00000   0.64160   Biso      1.000     H          0.063275  
         H28       1.0000    0.19700   0.55540   0.55540   Biso      1.000     H          0.063279  
         H29       1.0000    0.35840   0.35840   0.80300   Biso      1.000     H          0.063281  
         H30       1.0000    0.00000   0.44460   0.64160   Biso      1.000     H          0.063276  
         H31       1.0000    0.80300   0.35840   0.35840   Biso      1.000     H          0.063281  
         H32       1.0000    0.56510   0.23410   0.10240   Biso      1.000     H          0.103036  
         H33       1.0000    0.43490   0.53730   0.66900   Biso      1.000     H          0.103039  
         H34       1.0000    0.86830   0.76590   0.33100   Biso      1.000     H          0.103046  
         H35       1.0000    0.13170   0.46270   0.89760   Biso      1.000     H          0.103036  
         H36       1.0000    0.00000   0.64160   0.44460   Biso      1.000     H          0.063276  
         N1        1.0000    0.62592   0.71963   0.27219   Biso      1.000     N          -0.278841           
         N2        1.0000    0.55256   0.28037   0.90629   Biso      1.000     N          -0.278785           
         N3        1.0000    0.37408   0.09371   0.64627   Biso      1.000     N          -0.278828           
         N4        1.0000    0.44744   0.72781   0.35373   Biso      1.000     N          -0.278789           
         N5        1.0000    0.62592   0.27219   0.71963   Biso      1.000     N          -0.278841           
         N6        1.0000    0.55256   0.90629   0.28037   Biso      1.000     N          -0.278785           
         N7        1.0000    0.27219   0.71963   0.62592   Biso      1.000     N          -0.278847           
         N8        1.0000    0.28037   0.55256   0.90629   Biso      1.000     N          -0.27879  
         N9        1.0000    0.90629   0.28037   0.55256   Biso      1.000     N          -0.278785           
         N10       1.0000    0.09371   0.64627   0.37408   Biso      1.000     N          -0.278828           
         N11       1.0000    0.72781   0.35373   0.44744   Biso      1.000     N          -0.278789           
         N12       1.0000    0.44744   0.35373   0.72781   Biso      1.000     N          -0.278789           
         N13       1.0000    0.71963   0.62592   0.27219   Biso      1.000     N          -0.278847           
         N14       1.0000    0.37408   0.64627   0.09371   Biso      1.000     N          -0.278828           
         N15       1.0000    0.64627   0.37408   0.09371   Biso      1.000     N          -0.278834           
         N16       1.0000    0.35373   0.72781   0.44744   Biso      1.000     N          -0.278794           
         N17       1.0000    0.71963   0.27219   0.62592   Biso      1.000     N          -0.278847           
         N18       1.0000    0.28037   0.90629   0.55256   Biso      1.000     N          -0.278791           
         N19       1.0000    0.27219   0.62592   0.71963   Biso      1.000     N          -0.278841           
         N20       1.0000    0.90629   0.55256   0.28037   Biso      1.000     N          -0.278791           
         N21       1.0000    0.09371   0.37408   0.64627   Biso      1.000     N          -0.278834           
         N22       1.0000    0.72781   0.44744   0.35373   Biso      1.000     N          -0.278795           
         N23       1.0000    0.35373   0.44744   0.72781   Biso      1.000     N          -0.278795           
         N24       1.0000    0.64627   0.09371   0.37408   Biso      1.000     N          -0.278833           
         Zn1       1.0000    0.50000   0.25000   0.75000   Biso      1.000     Zn          0.618371  
         Zn2       1.0000    0.50000   0.75000   0.25000   Biso      1.000     Zn          0.618371  
         Zn3       1.0000    0.75000   0.25000   0.50000   Biso      1.000     Zn          0.618371  
         Zn4       1.0000    0.25000   0.75000   0.50000   Biso      1.000     Zn          0.618371  
         Zn5       1.0000    0.25000   0.50000   0.75000   Biso      1.000     Zn          0.618371  
         Zn6       1.0000    0.75000   0.50000   0.25000   Biso      1.000     Zn          0.618371 