
##########################################################################
#               Crystallographic Information Format file
#               Produced by PyCifRW module
#
#  This is a CIF file.  CIF has been adopted by the International
#  Union of Crystallography as the standard for data archiving and
#  transmission.
#
#  For information on this file format, follow the CIF links at
#  http://www.iucr.org
##########################################################################

data_image0

_cell_length_a                          13.9337
_cell_length_b                          13.9337
_cell_length_c                          16.599
_cell_angle_alpha                       80.8041
_cell_angle_beta                        80.8041
_cell_angle_gamma                       61.254
_symmetry_space_group_name_H-M          'P 1'
_symmetry_int_tables_number             1
loop_
  _symmetry_equiv_pos_as_xyz
         'x, y, z' 
loop_
  _atom_site_label
  _atom_site_occupancy
  _atom_site_fract_x
  _atom_site_fract_y
  _atom_site_fract_z
  _atom_site_thermal_displace_type
  _atom_site_B_iso_or_equiv
  _atom_site_type_symbol
  _atom_site_charge
         C1        1.0000    0.48500   0.81700   0.74400   Biso      1.000     C          -0.01697  
         C2        1.0000    0.04250   0.19870   0.63360   Biso      1.000     C          0.086362  
         C3        1.0000    0.10110   0.26910   0.48090   Biso      1.000     C          0.06302   
         C4        1.0000    0.88910   0.06710   0.19100   Biso      1.000     C          -0.084665           
         C5        1.0000    0.90700   0.00700   0.12600   Biso      1.000     C          -0.191463           
         C6        1.0000    0.98700   0.90500   0.10900   Biso      1.000     C          0.041365  
         C7        1.0000    0.46440   0.24440   0.78800   Biso      1.000     C          -0.040889           
         C8        1.0000    0.50900   0.20900   0.69900   Biso      1.000     C          -0.227289           
         C9        1.0000    0.56000   0.10000   0.67800   Biso      1.000     C          -0.060161           
         C10       1.0000    0.57400   0.92600   0.66300   Biso      1.000     C          -0.064076           
         C11       1.0000    0.52000   0.86200   0.66900   Biso      1.000     C          -0.220224           
         C12       1.0000    0.76470   0.93070   0.44450   Biso      1.000     C          -0.000854           
         C13       1.0000    0.16710   0.22750   0.18200   Biso      1.000     C          0.06971   
         C14       1.0000    0.08810   0.36390   0.61220   Biso      1.000     C          0.072274  
         C15       1.0000    0.24320   0.28380   0.03620   Biso      1.000     C          -0.012174           
         C16       1.0000    0.36390   0.08810   0.11220   Biso      1.000     C          0.07209   
         C17       1.0000    0.19870   0.04250   0.13360   Biso      1.000     C          0.086269  
         C18       1.0000    0.26910   0.10110   0.98090   Biso      1.000     C          0.063132  
         C19       1.0000    0.93290   0.11090   0.30900   Biso      1.000     C          -0.084663           
         C20       1.0000    0.99300   0.09300   0.37400   Biso      1.000     C          -0.191463           
         C21       1.0000    0.09500   0.01300   0.39100   Biso      1.000     C          0.041365  
         C22       1.0000    0.75560   0.53560   0.71200   Biso      1.000     C          -0.040885           
         C23       1.0000    0.79100   0.49100   0.80100   Biso      1.000     C          -0.227287           
         C24       1.0000    0.90000   0.44000   0.82200   Biso      1.000     C          -0.06016  
         C25       1.0000    0.07400   0.42600   0.83700   Biso      1.000     C          -0.064068           
         C26       1.0000    0.13800   0.48000   0.83100   Biso      1.000     C          -0.220219           
         C27       1.0000    0.18300   0.51500   0.75600   Biso      1.000     C          -0.016971           
         C28       1.0000    0.06930   0.23530   0.05550   Biso      1.000     C          -0.000874           
         C29       1.0000    0.23530   0.06930   0.55550   Biso      1.000     C          -0.000847           
         C30       1.0000    0.28380   0.24320   0.53620   Biso      1.000     C          -0.012175           
         C31       1.0000    0.22750   0.16710   0.68200   Biso      1.000     C          0.069701  
         C32       1.0000    0.89890   0.73090   0.51910   Biso      1.000     C          0.063157  
         C33       1.0000    0.95750   0.80130   0.36640   Biso      1.000     C          0.086268  
         C34       1.0000    0.91190   0.63610   0.38780   Biso      1.000     C          0.072137  
         C35       1.0000    0.11090   0.93290   0.80900   Biso      1.000     C          -0.084687           
         C36       1.0000    0.09300   0.99300   0.87400   Biso      1.000     C          -0.191451           
         C37       1.0000    0.01300   0.09500   0.89100   Biso      1.000     C          0.041363  
         C38       1.0000    0.53560   0.75560   0.21200   Biso      1.000     C          -0.040904           
         C39       1.0000    0.49100   0.79100   0.30100   Biso      1.000     C          -0.227275           
         C40       1.0000    0.44000   0.90000   0.32200   Biso      1.000     C          -0.06016  
         C41       1.0000    0.42600   0.07400   0.33700   Biso      1.000     C          -0.064085           
         C42       1.0000    0.48000   0.13800   0.33100   Biso      1.000     C          -0.220221           
         C43       1.0000    0.51500   0.18300   0.25600   Biso      1.000     C          -0.016969           
         C44       1.0000    0.83290   0.77250   0.81800   Biso      1.000     C          0.069754  
         C45       1.0000    0.75680   0.71620   0.96380   Biso      1.000     C          -0.012172           
         C46       1.0000    0.93070   0.76470   0.94450   Biso      1.000     C          -0.000855           
         C47       1.0000    0.63610   0.91190   0.88780   Biso      1.000     C          0.072222  
         C48       1.0000    0.80130   0.95750   0.86640   Biso      1.000     C          0.086365  
         C49       1.0000    0.73090   0.89890   0.01910   Biso      1.000     C          0.062991  
         C50       1.0000    0.06710   0.88910   0.69100   Biso      1.000     C          -0.084685           
         C51       1.0000    0.00700   0.90700   0.62600   Biso      1.000     C          -0.191448           
         C52       1.0000    0.90500   0.98700   0.60900   Biso      1.000     C          0.041361  
         C53       1.0000    0.24440   0.46440   0.28800   Biso      1.000     C          -0.040893           
         C54       1.0000    0.20900   0.50900   0.19900   Biso      1.000     C          -0.227277           
         C55       1.0000    0.10000   0.56000   0.17800   Biso      1.000     C          -0.06015  
         C56       1.0000    0.92600   0.57400   0.16300   Biso      1.000     C          -0.064075           
         C57       1.0000    0.86200   0.52000   0.16900   Biso      1.000     C          -0.220222           
         C58       1.0000    0.81700   0.48500   0.24400   Biso      1.000     C          -0.016955           
         C59       1.0000    0.77250   0.83290   0.31800   Biso      1.000     C          0.069668  
         C60       1.0000    0.71620   0.75680   0.46380   Biso      1.000     C          -0.012172           
         Co1       1.0000    0.83751   0.78155   0.41769   Biso      1.000     Co          0.169743  
         Co2       1.0000    0.78155   0.83751   0.91769   Biso      1.000     Co          0.169735  
         Co3       1.0000    0.16249   0.21845   0.58231   Biso      1.000     Co          0.169719  
         Co4       1.0000    0.21845   0.16249   0.08231   Biso      1.000     Co          0.169752  
         H1        1.0000    0.43300   0.19560   0.36150   Biso      1.000     H          0.128799  
         H2        1.0000    0.54590   0.09050   0.35890   Biso      1.000     H          0.116363  
         H3        1.0000    0.36400   0.10920   0.30900   Biso      1.000     H          0.093388  
         H4        1.0000    0.40650   0.05650   0.39420   Biso      1.000     H          0.105062  
         H5        1.0000    0.54820   0.93120   0.34290   Biso      1.000     H          0.2411    
         H6        1.0000    0.37300   0.94520   0.29850   Biso      1.000     H          0.074849  
         H7        1.0000    0.42350   0.90130   0.38180   Biso      1.000     H          0.094291  
         H8        1.0000    0.54180   0.75480   0.33790   Biso      1.000     H          0.115679  
         H9        1.0000    0.42680   0.77760   0.31890   Biso      1.000     H          0.106259  
         H10       1.0000    0.57490   0.68330   0.22350   Biso      1.000     H          0.100208  
         H11       1.0000    0.47190   0.78070   0.18710   Biso      1.000     H          0.108054  
         H12       1.0000    0.58710   0.81530   0.11650   Biso      1.000     H          0.30922   
         H13       1.0000    0.67370   0.75310   0.17940   Biso      1.000     H          0.299942  
         H14       1.0000    0.86000   0.17440   0.88920   Biso      1.000     H          0.303584  
         H15       1.0000    0.92580   0.22540   0.83100   Biso      1.000     H          0.295317  
         H16       1.0000    0.98340   0.08420   0.94690   Biso      1.000     H          0.074397  
         H17       1.0000    0.09520   0.94760   0.92370   Biso      1.000     H          0.103701  
         H18       1.0000    0.15930   0.00230   0.86760   Biso      1.000     H          0.109238  
         H19       1.0000    0.11280   0.86280   0.83860   Biso      1.000     H          0.11713   
         H20       1.0000    0.17960   0.91520   0.78330   Biso      1.000     H          0.099293  
         H21       1.0000    0.54910   0.22170   0.27020   Biso      1.000     H          0.093494  
         H22       1.0000    0.45380   0.22840   0.22840   Biso      1.000     H          0.097416  
         H23       1.0000    0.04760   0.13880   0.89100   Biso      1.000     H          0.090791  
         H24       1.0000    0.59180   0.13660   0.14580   Biso      1.000     H          0.312869  
         H25       1.0000    0.13880   0.04760   0.39100   Biso      1.000     H          0.090757  
         H26       1.0000    0.94760   0.09520   0.42370   Biso      1.000     H          0.103616  
         H27       1.0000    0.00230   0.15930   0.36760   Biso      1.000     H          0.109208  
         H28       1.0000    0.86280   0.11280   0.33860   Biso      1.000     H          0.117047  
         H29       1.0000    0.91520   0.17960   0.28330   Biso      1.000     H          0.099257  
         H30       1.0000    0.40820   0.86340   0.85420   Biso      1.000     H          0.312985  
         H31       1.0000    0.33040   0.92240   0.78510   Biso      1.000     H          0.287475  
         H32       1.0000    0.08420   0.98340   0.44690   Biso      1.000     H          0.074305  
         H33       1.0000    0.54620   0.77160   0.77160   Biso      1.000     H          0.097442  
         H34       1.0000    0.56700   0.80440   0.63850   Biso      1.000     H          0.128843  
         H35       1.0000    0.45410   0.90950   0.64110   Biso      1.000     H          0.116398  
         H36       1.0000    0.63600   0.89080   0.69100   Biso      1.000     H          0.093403  
         H37       1.0000    0.59350   0.94350   0.60580   Biso      1.000     H          0.105147  
         H38       1.0000    0.45180   0.06880   0.65710   Biso      1.000     H          0.241156  
         H39       1.0000    0.62700   0.05480   0.70150   Biso      1.000     H          0.07486   
         H40       1.0000    0.57650   0.09870   0.61820   Biso      1.000     H          0.09437   
         H41       1.0000    0.45090   0.77830   0.72980   Biso      1.000     H          0.093545  
         H42       1.0000    0.45820   0.24520   0.66210   Biso      1.000     H          0.115718  
         H43       1.0000    0.22540   0.92580   0.33100   Biso      1.000     H          0.295304  
         H44       1.0000    0.75310   0.67370   0.67940   Biso      1.000     H          0.299998  
         H45       1.0000    0.13660   0.59180   0.64580   Biso      1.000     H          0.312999  
         H46       1.0000    0.07760   0.66960   0.71490   Biso      1.000     H          0.287484  
         H47       1.0000    0.22840   0.45380   0.72840   Biso      1.000     H          0.097458  
         H48       1.0000    0.22170   0.54910   0.77020   Biso      1.000     H          0.093571  
         H49       1.0000    0.19560   0.43300   0.86150   Biso      1.000     H          0.128858  
         H50       1.0000    0.09050   0.54590   0.85890   Biso      1.000     H          0.116405  
         H51       1.0000    0.10920   0.36400   0.80900   Biso      1.000     H          0.093417  
         H52       1.0000    0.17440   0.86000   0.38920   Biso      1.000     H          0.303507  
         H53       1.0000    0.05650   0.40650   0.89420   Biso      1.000     H          0.105161  
         H54       1.0000    0.94520   0.37300   0.79850   Biso      1.000     H          0.074874  
         H55       1.0000    0.90130   0.42350   0.88180   Biso      1.000     H          0.094386  
         H56       1.0000    0.75480   0.54180   0.83790   Biso      1.000     H          0.115737  
         H57       1.0000    0.77760   0.42680   0.81890   Biso      1.000     H          0.106347  
         H58       1.0000    0.68330   0.57490   0.72350   Biso      1.000     H          0.100265  
         H59       1.0000    0.66960   0.07760   0.21490   Biso      1.000     H          0.287425  
         H60       1.0000    0.81530   0.58710   0.61650   Biso      1.000     H          0.309318  
         H61       1.0000    0.93120   0.54820   0.84290   Biso      1.000     H          0.241166  
         H62       1.0000    0.57320   0.22240   0.68110   Biso      1.000     H          0.106325  
         H63       1.0000    0.78070   0.47190   0.68710   Biso      1.000     H          0.108123  
         H64       1.0000    0.52810   0.21930   0.81290   Biso      1.000     H          0.1081    
         H65       1.0000    0.09870   0.57650   0.11820   Biso      1.000     H          0.094291  
         H66       1.0000    0.24520   0.45820   0.16210   Biso      1.000     H          0.115679  
         H67       1.0000    0.22240   0.57320   0.18110   Biso      1.000     H          0.106277  
         H68       1.0000    0.31670   0.42510   0.27650   Biso      1.000     H          0.100212  
         H69       1.0000    0.21930   0.52810   0.31290   Biso      1.000     H          0.108046  
         H70       1.0000    0.18470   0.41290   0.38350   Biso      1.000     H          0.309219  
         H71       1.0000    0.24690   0.32630   0.32060   Biso      1.000     H          0.299952  
         H72       1.0000    0.77460   0.07420   0.66900   Biso      1.000     H          0.295322  
         H73       1.0000    0.91580   0.01660   0.55310   Biso      1.000     H          0.074399  
         H74       1.0000    0.86120   0.95240   0.60900   Biso      1.000     H          0.090794  
         H75       1.0000    0.05240   0.90480   0.57630   Biso      1.000     H          0.103703  
         H76       1.0000    0.99770   0.84070   0.63240   Biso      1.000     H          0.109235  
         H77       1.0000    0.13720   0.88720   0.66140   Biso      1.000     H          0.117121  
         H78       1.0000    0.08480   0.82040   0.71670   Biso      1.000     H          0.099297  
         H79       1.0000    0.42510   0.31670   0.77650   Biso      1.000     H          0.100252  
         H80       1.0000    0.05480   0.62700   0.20150   Biso      1.000     H          0.074839  
         H81       1.0000    0.06880   0.45180   0.15710   Biso      1.000     H          0.241108  
         H82       1.0000    0.82560   0.14000   0.61080   Biso      1.000     H          0.303597  
         H83       1.0000    0.01660   0.91580   0.05310   Biso      1.000     H          0.074308  
         H84       1.0000    0.07420   0.77460   0.16900   Biso      1.000     H          0.295299  
         H85       1.0000    0.41290   0.18470   0.88350   Biso      1.000     H          0.309311  
         H86       1.0000    0.95240   0.86120   0.10900   Biso      1.000     H          0.09076   
         H87       1.0000    0.90480   0.05240   0.07630   Biso      1.000     H          0.103619  
         H88       1.0000    0.84070   0.99770   0.13240   Biso      1.000     H          0.109219  
         H89       1.0000    0.94350   0.59350   0.10580   Biso      1.000     H          0.105063  
         H90       1.0000    0.88720   0.13720   0.16140   Biso      1.000     H          0.117056  
         H91       1.0000    0.82040   0.08480   0.21670   Biso      1.000     H          0.099249  
         H92       1.0000    0.86340   0.40820   0.35420   Biso      1.000     H          0.312883  
         H93       1.0000    0.92240   0.33040   0.28510   Biso      1.000     H          0.287437  
         H94       1.0000    0.77160   0.54620   0.27160   Biso      1.000     H          0.097409  
         H95       1.0000    0.77830   0.45090   0.22980   Biso      1.000     H          0.093489  
         H96       1.0000    0.80440   0.56700   0.13850   Biso      1.000     H          0.128801  
         H97       1.0000    0.90950   0.45410   0.14110   Biso      1.000     H          0.11635   
         H98       1.0000    0.89080   0.63600   0.19100   Biso      1.000     H          0.093384  
         H99       1.0000    0.14000   0.82560   0.11080   Biso      1.000     H          0.303523  
         H100      1.0000    0.32630   0.24690   0.82060   Biso      1.000     H          0.299988  
         N1        1.0000    0.89930   0.40130   0.30230   Biso      1.000     N          -0.592067           
         N2        1.0000    0.27330   0.13190   0.74010   Biso      1.000     N          -0.402168           
         N3        1.0000    0.35610   0.26490   0.51060   Biso      1.000     N          -0.413278           
         N4        1.0000    0.27820   0.97800   0.54310   Biso      1.000     N          -0.433253           
         N5        1.0000    0.92170   0.15970   0.84950   Biso      1.000     N          -0.558443           
         N6        1.0000    0.97140   0.18260   0.67050   Biso      1.000     N          -0.436861           
         N7        1.0000    0.06560   0.30560   0.41950   Biso      1.000     N          -0.395199           
         N8        1.0000    0.03230   0.50830   0.19560   Biso      1.000     N          -0.293797           
         N9        1.0000    0.07830   0.84030   0.15050   Biso      1.000     N          -0.55847  
         N10       1.0000    0.04270   0.44950   0.63300   Biso      1.000     N          -0.359171           
         N11       1.0000    0.19380   0.39920   0.32840   Biso      1.000     N          -0.547286           
         N12       1.0000    0.59870   0.10070   0.19770   Biso      1.000     N          -0.592076           
         N13       1.0000    0.69440   0.93440   0.08050   Biso      1.000     N          -0.395164           
         N14       1.0000    0.81740   0.02860   0.82950   Biso      1.000     N          -0.436854           
         N15       1.0000    0.55050   0.95730   0.86700   Biso      1.000     N          -0.359198           
         N16       1.0000    0.02200   0.72180   0.95690   Biso      1.000     N          -0.43325  
         N17       1.0000    0.73510   0.64390   0.98940   Biso      1.000     N          -0.413276           
         N18       1.0000    0.86810   0.72670   0.75990   Biso      1.000     N          -0.402143           
         N19       1.0000    0.49170   0.96770   0.30440   Biso      1.000     N          -0.293819           
         N20       1.0000    0.60080   0.80620   0.17160   Biso      1.000     N          -0.5473   
         N21       1.0000    0.39920   0.19380   0.82840   Biso      1.000     N          -0.547275           
         N22       1.0000    0.84030   0.07830   0.65050   Biso      1.000     N          -0.558448           
         N23       1.0000    0.50830   0.03230   0.69560   Biso      1.000     N          -0.293815           
         N24       1.0000    0.04130   0.95870   0.75000   Biso      1.000     N          -0.063555           
         N25       1.0000    0.13190   0.27330   0.24010   Biso      1.000     N          -0.402123           
         N26       1.0000    0.95870   0.04130   0.25000   Biso      1.000     N          -0.063675           
         N27       1.0000    0.93440   0.69440   0.58050   Biso      1.000     N          -0.395397           
         N28       1.0000    0.02860   0.81740   0.32950   Biso      1.000     N          -0.436806           
         N29       1.0000    0.95730   0.55050   0.36700   Biso      1.000     N          -0.359192           
         N30       1.0000    0.72180   0.02200   0.45690   Biso      1.000     N          -0.433334           
         N31       1.0000    0.40130   0.89930   0.80230   Biso      1.000     N          -0.592054           
         N32       1.0000    0.72670   0.86810   0.25990   Biso      1.000     N          -0.402091           
         N33       1.0000    0.10070   0.59870   0.69770   Biso      1.000     N          -0.592069           
         N34       1.0000    0.64390   0.73510   0.48940   Biso      1.000     N          -0.41341  
         N35       1.0000    0.80620   0.60080   0.67160   Biso      1.000     N          -0.547287           
         N36       1.0000    0.15970   0.92170   0.34950   Biso      1.000     N          -0.558467           
         N37       1.0000    0.30560   0.06560   0.91950   Biso      1.000     N          -0.395412           
         N38       1.0000    0.18260   0.97140   0.17050   Biso      1.000     N          -0.436816           
         N39       1.0000    0.44950   0.04270   0.13300   Biso      1.000     N          -0.359181           
         N40       1.0000    0.97800   0.27820   0.04310   Biso      1.000     N          -0.433364           
         N41       1.0000    0.26490   0.35610   0.01060   Biso      1.000     N          -0.413436           
         N42       1.0000    0.96770   0.49170   0.80440   Biso      1.000     N          -0.293795           
         Ni1       1.0000    0.40837   0.04427   0.80831   Biso      1.000     Ni          0.690037  
         Ni2       1.0000    0.04427   0.40837   0.30831   Biso      1.000     Ni          0.689803  
         Ni3       1.0000    0.59163   0.95573   0.19169   Biso      1.000     Ni          0.689668  
         Ni4       1.0000    0.10820   0.89180   0.25000   Biso      1.000     Ni          0.6236    
         Ni5       1.0000    0.89180   0.10820   0.75000   Biso      1.000     Ni          0.623743  
         Ni6       1.0000    0.95573   0.59163   0.69169   Biso      1.000     Ni          0.690041 