
##########################################################################
#               Crystallographic Information Format file
#               Produced by PyCifRW module
#
#  This is a CIF file.  CIF has been adopted by the International
#  Union of Crystallography as the standard for data archiving and
#  transmission.
#
#  For information on this file format, follow the CIF links at
#  http://www.iucr.org
##########################################################################

data_image0

_cell_length_a                          6.5562
_cell_length_b                          10.6424
_cell_length_c                          18.2951
_cell_angle_alpha                       90
_cell_angle_beta                        98.07
_cell_angle_gamma                       90
_symmetry_space_group_name_H-M          'P 1'
_symmetry_int_tables_number             1
loop_
  _symmetry_equiv_pos_as_xyz
         'x, y, z' 
loop_
  _atom_site_label
  _atom_site_occupancy
  _atom_site_fract_x
  _atom_site_fract_y
  _atom_site_fract_z
  _atom_site_thermal_displace_type
  _atom_site_B_iso_or_equiv
  _atom_site_type_symbol
  _atom_site_charge
         C1        1.0000    0.72390   0.09860   0.90940   Biso      1.000     C          0.670375  
         C2        1.0000    0.02710   0.31420   0.21366   Biso      1.000     C          -0.111563           
         C3        1.0000    0.30910   0.21680   0.14529   Biso      1.000     C          0.595907  
         C4        1.0000    0.22390   0.40140   0.40940   Biso      1.000     C          0.670375  
         C5        1.0000    0.22290   0.27410   0.20925   Biso      1.000     C          -0.070142           
         C6        1.0000    0.68690   0.13850   0.83132   Biso      1.000     C          -0.164886           
         C7        1.0000    0.72290   0.22590   0.70925   Biso      1.000     C          -0.070148           
         C8        1.0000    0.50610   0.13430   0.78358   Biso      1.000     C          -0.097576           
         C9        1.0000    0.80910   0.28320   0.64529   Biso      1.000     C          0.595908  
         C10       1.0000    0.00610   0.36570   0.28358   Biso      1.000     C          -0.097581           
         C11       1.0000    0.99390   0.63430   0.71642   Biso      1.000     C          -0.09758  
         C12       1.0000    0.52710   0.18580   0.71366   Biso      1.000     C          -0.111559           
         C13       1.0000    0.49390   0.86570   0.21642   Biso      1.000     C          -0.09758  
         C14       1.0000    0.31310   0.86150   0.16868   Biso      1.000     C          -0.164881           
         C15       1.0000    0.77610   0.59860   0.59060   Biso      1.000     C          0.670374  
         C16       1.0000    0.47290   0.81420   0.28634   Biso      1.000     C          -0.111564           
         C17       1.0000    0.19090   0.71680   0.35471   Biso      1.000     C          0.595907  
         C18       1.0000    0.27610   0.90140   0.09060   Biso      1.000     C          0.670374  
         C19       1.0000    0.69090   0.78320   0.85471   Biso      1.000     C          0.595907  
         C20       1.0000    0.97290   0.68580   0.78634   Biso      1.000     C          -0.111564           
         C21       1.0000    0.81310   0.63850   0.66868   Biso      1.000     C          -0.164882           
         C22       1.0000    0.77710   0.72590   0.79075   Biso      1.000     C          -0.070142           
         C23       1.0000    0.27710   0.77410   0.29075   Biso      1.000     C          -0.070142           
         C24       1.0000    0.18690   0.36150   0.33132   Biso      1.000     C          -0.164881           
         Ca1       1.0000    0.75225   0.40366   0.47748   Biso      1.000     Ca          1.499237  
         Ca2       1.0000    0.24775   0.59634   0.52252   Biso      1.000     Ca          1.499237  
         Ca3       1.0000    0.25225   0.09634   0.97748   Biso      1.000     Ca          1.499236  
         Ca4       1.0000    0.74775   0.90366   0.02252   Biso      1.000     Ca          1.499237  
         H1        1.0000    0.08300   0.69180   0.82590   Biso      1.000     H          0.148546  
         H2        1.0000    0.41700   0.19180   0.67410   Biso      1.000     H          0.148546  
         H3        1.0000    0.38110   0.10070   0.79600   Biso      1.000     H          0.120969  
         H4        1.0000    0.88110   0.39930   0.29600   Biso      1.000     H          0.120969  
         H5        1.0000    0.11890   0.60070   0.70400   Biso      1.000     H          0.120969  
         H6        1.0000    0.91700   0.30820   0.17410   Biso      1.000     H          0.148546  
         H7        1.0000    0.58300   0.80820   0.32590   Biso      1.000     H          0.148547  
         H8        1.0000    0.61890   0.89930   0.20400   Biso      1.000     H          0.120969  
         O1        1.0000    0.09730   0.89788   0.05628   Biso      1.000     O          -0.688626           
         O2        1.0000    0.42830   0.94056   0.06111   Biso      1.000     O          -0.726913           
         O3        1.0000    0.32020   0.68166   0.40910   Biso      1.000     O          -0.68914  
         O4        1.0000    0.99940   0.71150   0.35000   Biso      1.000     O          -0.59304  
         O5        1.0000    0.49940   0.78850   0.85000   Biso      1.000     O          -0.593041           
         O6        1.0000    0.82020   0.81834   0.90910   Biso      1.000     O          -0.68914  
         O7        1.0000    0.92830   0.55944   0.56111   Biso      1.000     O          -0.726913           
         O8        1.0000    0.59730   0.60212   0.55628   Biso      1.000     O          -0.688626           
         O9        1.0000    0.67980   0.31834   0.59090   Biso      1.000     O          -0.68914  
         O10       1.0000    0.40270   0.39788   0.44372   Biso      1.000     O          -0.688626           
         O11       1.0000    0.07170   0.44056   0.43889   Biso      1.000     O          -0.726913           
         O12       1.0000    0.17980   0.18166   0.09090   Biso      1.000     O          -0.68914  
         O13       1.0000    0.50060   0.21150   0.15000   Biso      1.000     O          -0.59304  
         O14       1.0000    0.90270   0.10212   0.94372   Biso      1.000     O          -0.688626           
         O15       1.0000    0.00060   0.28850   0.65000   Biso      1.000     O          -0.593041           
         O16       1.0000    0.57170   0.05944   0.93889   Biso      1.000     O          -0.726913           
         S1        1.0000    0.38445   0.29901   0.29027   Biso      1.000     S          0.106854  
         S2        1.0000    0.88445   0.20099   0.79027   Biso      1.000     S          0.106855  
         S3        1.0000    0.11555   0.79901   0.20973   Biso      1.000     S          0.106854  
         S4        1.0000    0.61555   0.70099   0.70973   Biso      1.000     S          0.106854 