
##########################################################################
#               Crystallographic Information Format file
#               Produced by PyCifRW module
#
#  This is a CIF file.  CIF has been adopted by the International
#  Union of Crystallography as the standard for data archiving and
#  transmission.
#
#  For information on this file format, follow the CIF links at
#  http://www.iucr.org
##########################################################################

data_image0

_cell_length_a                          13.6159
_cell_length_b                          14.4797
_cell_length_c                          16.0372
_cell_angle_alpha                       116.836
_cell_angle_beta                        96.234
_cell_angle_gamma                       90
_symmetry_space_group_name_H-M          'P 1'
_symmetry_int_tables_number             1
loop_
  _symmetry_equiv_pos_as_xyz
         'x, y, z' 
loop_
  _atom_site_label
  _atom_site_occupancy
  _atom_site_fract_x
  _atom_site_fract_y
  _atom_site_fract_z
  _atom_site_thermal_displace_type
  _atom_site_B_iso_or_equiv
  _atom_site_type_symbol
  _atom_site_charge
         C1        1.0000    0.62630   0.22420   0.95860   Biso      1.000     C          -0.15974100000000002          
         C2        1.0000    0.66610   0.56080   0.45200   Biso      1.000     C          0.6889890000000001  
         C3        1.0000    0.97310   0.16480   0.80740   Biso      1.000     C          0.591056  
         C4        1.0000    0.93590   0.23810   0.89860   Biso      1.000     C          -0.009063           
         C5        1.0000    0.90540   0.19710   0.95660   Biso      1.000     C          -0.097788           
         C6        1.0000    0.93480   0.34140   0.92760   Biso      1.000     C          -0.086733           
         C7        1.0000    0.91690   0.83790   0.49520   Biso      1.000     C          0.652917  
         C8        1.0000    0.86190   0.73530   0.43360   Biso      1.000     C          -0.018056           
         C9        1.0000    0.88100   0.67720   0.34240   Biso      1.000     C          -0.17188499999999998          
         C10       1.0000    0.79410   0.69600   0.47060   Biso      1.000     C          -0.112205           
         C11       1.0000    0.74340   0.60150   0.41440   Biso      1.000     C          -0.015986           
         C12       1.0000    0.83360   0.58180   0.28880   Biso      1.000     C          0.179856  
         C13       1.0000    0.87400   0.36950   0.06860   Biso      1.000     C          0.176635  
         C14       1.0000    0.73620   0.22130   0.67640   Biso      1.000     C          -0.15553599999999998          
         C15       1.0000    0.90390   0.40830   0.01200   Biso      1.000     C          -0.156503           
         C16       1.0000    0.87370   0.26560   0.04140   Biso      1.000     C          -0.157913           
         C17       1.0000    0.83390   0.10880   0.54800   Biso      1.000     C          0.688048  
         C18       1.0000    0.52690   0.35740   0.19260   Biso      1.000     C          0.589916  
         C19       1.0000    0.56410   0.33950   0.10140   Biso      1.000     C          -0.007801000000000001         
         C20       1.0000    0.59460   0.24050   0.04340   Biso      1.000     C          -0.099234           
         C21       1.0000    0.56520   0.41380   0.07240   Biso      1.000     C          -0.086315           
         C22       1.0000    0.58310   0.34270   0.50480   Biso      1.000     C          0.65336   
         C23       1.0000    0.63810   0.30170   0.56640   Biso      1.000     C          -0.016881           
         C24       1.0000    0.61900   0.33480   0.65760   Biso      1.000     C          -0.172203           
         C25       1.0000    0.70590   0.22540   0.52940   Biso      1.000     C          -0.114071           
         C26       1.0000    0.75660   0.18710   0.58560   Biso      1.000     C          -0.014130000000000002         
         C27       1.0000    0.66640   0.29300   0.71120   Biso      1.000     C          0.18094100000000002           
         C28       1.0000    0.76380   0.54490   0.32360   Biso      1.000     C          -0.153789           
         C29       1.0000    0.33390   0.43920   0.54800   Biso      1.000     C          0.6889890000000001  
         C30       1.0000    0.02690   0.83520   0.19260   Biso      1.000     C          0.591056  
         C31       1.0000    0.06410   0.76190   0.10140   Biso      1.000     C          -0.009064000000000001         
         C32       1.0000    0.37370   0.77580   0.04140   Biso      1.000     C          -0.159742           
         C33       1.0000    0.26380   0.77870   0.32360   Biso      1.000     C          -0.15553599999999998          
         C34       1.0000    0.40390   0.60370   0.01200   Biso      1.000     C          -0.15642799999999998          
         C35       1.0000    0.37400   0.69910   0.06860   Biso      1.000     C          0.17947000000000002           
         C36       1.0000    0.33360   0.70700   0.28880   Biso      1.000     C          0.18093399999999998           
         C37       1.0000    0.24340   0.81290   0.41440   Biso      1.000     C          -0.014129           
         C38       1.0000    0.29410   0.77460   0.47060   Biso      1.000     C          -0.114071           
         C39       1.0000    0.38100   0.66520   0.34240   Biso      1.000     C          -0.172199           
         C40       1.0000    0.36190   0.69830   0.43360   Biso      1.000     C          -0.016878           
         C41       1.0000    0.41690   0.65730   0.49520   Biso      1.000     C          0.65336   
         C42       1.0000    0.43480   0.58620   0.92760   Biso      1.000     C          -0.086329           
         C43       1.0000    0.40540   0.75950   0.95660   Biso      1.000     C          -0.099235           
         C44       1.0000    0.43590   0.66050   0.89860   Biso      1.000     C          -0.007781999999999999         
         C45       1.0000    0.47310   0.64260   0.80740   Biso      1.000     C          0.589914  
         C46       1.0000    0.16610   0.89120   0.45200   Biso      1.000     C          0.688048  
         C47       1.0000    0.12630   0.73440   0.95860   Biso      1.000     C          -0.157916           
         C48       1.0000    0.23620   0.45510   0.67640   Biso      1.000     C          -0.153793           
         C49       1.0000    0.09610   0.59170   0.98800   Biso      1.000     C          -0.156522           
         C50       1.0000    0.12600   0.63050   0.93140   Biso      1.000     C          0.17665799999999998           
         C51       1.0000    0.16640   0.41820   0.71120   Biso      1.000     C          0.179848  
         C52       1.0000    0.25660   0.39850   0.58560   Biso      1.000     C          -0.015983           
         C53       1.0000    0.20590   0.30400   0.52940   Biso      1.000     C          -0.112205           
         C54       1.0000    0.11900   0.32280   0.65760   Biso      1.000     C          -0.17188399999999998          
         C55       1.0000    0.13810   0.26470   0.56640   Biso      1.000     C          -0.018053           
         C56       1.0000    0.08310   0.16210   0.50480   Biso      1.000     C          0.652917  
         C57       1.0000    0.06520   0.65860   0.07240   Biso      1.000     C          -0.086728           
         C58       1.0000    0.09460   0.80290   0.04340   Biso      1.000     C          -0.097788           
         C59       1.0000    0.62600   0.30090   0.93140   Biso      1.000     C          0.17946099999999998           
         C60       1.0000    0.59610   0.39630   0.98800   Biso      1.000     C          -0.156415           
         Gd1       1.0000    0.46562   0.39205   0.36620   Biso      1.000     Gd          2.0398009999999998  
         Gd2       1.0000    0.03438   0.02585   0.63380   Biso      1.000     Gd          2.039629  
         Gd3       1.0000    0.53438   0.60795   0.63380   Biso      1.000     Gd          2.0398009999999998  
         Gd4       1.0000    0.96562   0.97415   0.36620   Biso      1.000     Gd          2.039629  
         H1        1.0000    0.78300   0.73350   0.53320   Biso      1.000     H          0.130182  
         H2        1.0000    0.35180   0.84040   0.08040   Biso      1.000     H          0.122054  
         H3        1.0000    0.90640   0.12650   0.93880   Biso      1.000     H          0.127098  
         H4        1.0000    0.95570   0.36800   0.88900   Biso      1.000     H          0.116656  
         H5        1.0000    0.92600   0.70270   0.31720   Biso      1.000     H          0.141253  
         H6        1.0000    0.90340   0.47910   0.03020   Biso      1.000     H          0.121278  
         H7        1.0000    0.73020   0.48120   0.28540   Biso      1.000     H          0.129429  
         H8        1.0000    0.85180   0.24000   0.08040   Biso      1.000     H          0.121152  
         H9        1.0000    0.59360   0.18770   0.06120   Biso      1.000     H          0.127624  
         H10       1.0000    0.54430   0.47900   0.11100   Biso      1.000     H          0.115848  
         H11       1.0000    0.57400   0.38550   0.68280   Biso      1.000     H          0.141052  
         H12       1.0000    0.59660   0.44890   0.96980   Biso      1.000     H          0.120833  
         H13       1.0000    0.71700   0.20030   0.46680   Biso      1.000     H          0.130618  
         H14       1.0000    0.64820   0.15960   0.91960   Biso      1.000     H          0.122055  
         H15       1.0000    0.23020   0.80420   0.28540   Biso      1.000     H          0.129708  
         H16       1.0000    0.40340   0.55110   0.03020   Biso      1.000     H          0.120833  
         H17       1.0000    0.28300   0.79970   0.53320   Biso      1.000     H          0.130618  
         H18       1.0000    0.42600   0.61450   0.31720   Biso      1.000     H          0.141051  
         H19       1.0000    0.45570   0.52100   0.88900   Biso      1.000     H          0.11584900000000001           
         H20       1.0000    0.40640   0.81230   0.93880   Biso      1.000     H          0.127624  
         H21       1.0000    0.76980   0.19580   0.71460   Biso      1.000     H          0.129708  
         H22       1.0000    0.14820   0.76000   0.91960   Biso      1.000     H          0.121153  
         H23       1.0000    0.26980   0.51880   0.71460   Biso      1.000     H          0.129431  
         H24       1.0000    0.09660   0.52090   0.96980   Biso      1.000     H          0.121278  
         H25       1.0000    0.21700   0.26650   0.46680   Biso      1.000     H          0.130182  
         H26       1.0000    0.07400   0.29730   0.68280   Biso      1.000     H          0.141252  
         H27       1.0000    0.04430   0.63200   0.11100   Biso      1.000     H          0.116657  
         H28       1.0000    0.09360   0.87350   0.06120   Biso      1.000     H          0.127098  
         N1        1.0000    0.15580   0.56960   0.83820   Biso      1.000     N          -0.125541           
         N2        1.0000    0.36280   0.67040   0.19500   Biso      1.000     N          -0.12158499999999998          
         N3        1.0000    0.34420   0.73140   0.16180   Biso      1.000     N          -0.127398           
         N4        1.0000    0.13720   0.47540   0.80500   Biso      1.000     N          -0.12196300000000002          
         N5        1.0000    0.86280   0.52460   0.19500   Biso      1.000     N          -0.122044           
         N6        1.0000    0.63720   0.32960   0.80500   Biso      1.000     N          -0.12158599999999999          
         N7        1.0000    0.84420   0.43040   0.16180   Biso      1.000     N          -0.125459           
         N8        1.0000    0.65580   0.26860   0.83820   Biso      1.000     N          -0.127397           
         O1        1.0000    0.37370   0.52630   0.60100   Biso      1.000     O          -0.631333           
         O2        1.0000    0.51240   0.55910   0.76220   Biso      1.000     O          -0.650854           
         O3        1.0000    0.46400   0.71100   0.78040   Biso      1.000     O          -0.648061           
         O4        1.0000    0.14850   0.91691   0.53362   Biso      1.000     O          -0.703641           
         O5        1.0000    0.12630   0.92530   0.39900   Biso      1.000     O          -0.630629           
         O6        1.0000    0.04970   0.10990   0.54140   Biso      1.000     O          -0.753354           
         O7        1.0000    0.07000   0.13129   0.41738   Biso      1.000     O          -0.600769           
         O8        1.0000    0.98760   0.79690   0.23780   Biso      1.000     O          -0.65183  
         O9        1.0000    0.03600   0.93060   0.21960   Biso      1.000     O          -0.647937           
         O10       1.0000    0.35150   0.38329   0.46638   Biso      1.000     O          -0.703607           
         O11       1.0000    0.54970   0.43150   0.54140   Biso      1.000     O          -0.7528560000000001           
         O12       1.0000    0.43000   0.71391   0.58262   Biso      1.000     O          -0.601788           
         O13       1.0000    0.48760   0.44090   0.23780   Biso      1.000     O          -0.650854           
         O14       1.0000    0.53600   0.28900   0.21960   Biso      1.000     O          -0.648061           
         O15       1.0000    0.85150   0.08309   0.46638   Biso      1.000     O          -0.703641           
         O16       1.0000    0.87370   0.07470   0.60100   Biso      1.000     O          -0.630629           
         O17       1.0000    0.95030   0.89010   0.45860   Biso      1.000     O          -0.753355           
         O18       1.0000    0.93000   0.86871   0.58262   Biso      1.000     O          -0.600769           
         O19       1.0000    0.01240   0.20310   0.76220   Biso      1.000     O          -0.65183  
         O20       1.0000    0.96400   0.06940   0.78040   Biso      1.000     O          -0.647937           
         O21       1.0000    0.64850   0.61671   0.53362   Biso      1.000     O          -0.703607           
         O22       1.0000    0.62630   0.47370   0.39900   Biso      1.000     O          -0.631333           
         O23       1.0000    0.57000   0.28609   0.41738   Biso      1.000     O          -0.601788           
         O24       1.0000    0.45030   0.56850   0.45860   Biso      1.000     O          -0.7528560000000001 