
##########################################################################
#               Crystallographic Information Format file
#               Produced by PyCifRW module
#
#  This is a CIF file.  CIF has been adopted by the International
#  Union of Crystallography as the standard for data archiving and
#  transmission.
#
#  For information on this file format, follow the CIF links at
#  http://www.iucr.org
##########################################################################

data_image0

_cell_length_a                          20.837
_cell_length_b                          11.759
_cell_length_c                          11.346
_cell_angle_alpha                       90
_cell_angle_beta                        90
_cell_angle_gamma                       90
_symmetry_space_group_name_H-M          'P 1'
_symmetry_int_tables_number             1
loop_
  _symmetry_equiv_pos_as_xyz
         'x, y, z' 
loop_
  _atom_site_label
  _atom_site_occupancy
  _atom_site_fract_x
  _atom_site_fract_y
  _atom_site_fract_z
  _atom_site_thermal_displace_type
  _atom_site_B_iso_or_equiv
  _atom_site_type_symbol
  _atom_site_charge
         C1        1.0000    0.22815   0.76426   0.22547   Biso      1.000     C          -0.007517           
         C2        1.0000    0.77185   0.23574   0.72548   Biso      1.000     C          -0.007507           
         C3        1.0000    0.22815   0.23574   0.72548   Biso      1.000     C          -0.007507           
         C4        1.0000    0.77185   0.76426   0.22547   Biso      1.000     C          -0.007517           
         C5        1.0000    0.72815   0.26427   0.22548   Biso      1.000     C          -0.007433           
         C6        1.0000    0.27185   0.73573   0.72547   Biso      1.000     C          -0.007472           
         C7        1.0000    0.72815   0.73573   0.72547   Biso      1.000     C          -0.007472           
         C8        1.0000    0.27185   0.26427   0.22548   Biso      1.000     C          -0.007433           
         C9        1.0000    0.22564   0.85287   0.41716   Biso      1.000     C          -0.033458           
         C10       1.0000    0.77435   0.14713   0.91716   Biso      1.000     C          -0.033629           
         C11       1.0000    0.22565   0.14713   0.91716   Biso      1.000     C          -0.033629           
         C12       1.0000    0.77436   0.85287   0.41716   Biso      1.000     C          -0.033458           
         C13       1.0000    0.72564   0.35288   0.41716   Biso      1.000     C          -0.033688           
         C14       1.0000    0.27436   0.64713   0.91716   Biso      1.000     C          -0.033823           
         C15       1.0000    0.72564   0.64713   0.91716   Biso      1.000     C          -0.033823           
         C16       1.0000    0.27436   0.35288   0.41716   Biso      1.000     C          -0.033688           
         C17       1.0000    0.13466   0.74518   0.34937   Biso      1.000     C          -0.018101           
         C18       1.0000    0.86536   0.25482   0.84938   Biso      1.000     C          -0.017851           
         C19       1.0000    0.13464   0.25482   0.84938   Biso      1.000     C          -0.017851           
         C20       1.0000    0.86534   0.74518   0.34937   Biso      1.000     C          -0.018101           
         C21       1.0000    0.63464   0.24518   0.34937   Biso      1.000     C          -0.017792           
         C22       1.0000    0.36536   0.75482   0.84937   Biso      1.000     C          -0.017703           
         C23       1.0000    0.63464   0.75482   0.84937   Biso      1.000     C          -0.017703           
         C24       1.0000    0.36536   0.24518   0.34937   Biso      1.000     C          -0.017792           
         C25       1.0000    0.12762   0.95056   0.36489   Biso      1.000     C          -0.002574           
         C26       1.0000    0.87239   0.04947   0.86488   Biso      1.000     C          -0.002874           
         C27       1.0000    0.12761   0.04947   0.86488   Biso      1.000     C          -0.002874           
         C28       1.0000    0.87238   0.95056   0.36489   Biso      1.000     C          -0.002574           
         C29       1.0000    0.62760   0.45054   0.36488   Biso      1.000     C          -0.003406           
         C30       1.0000    0.37239   0.54946   0.86488   Biso      1.000     C          -0.003135           
         C31       1.0000    0.62761   0.54946   0.86488   Biso      1.000     C          -0.003134           
         C32       1.0000    0.37240   0.45054   0.36488   Biso      1.000     C          -0.003406           
         C33       1.0000    0.13019   0.86099   0.17175   Biso      1.000     C          -0.009999           
         C34       1.0000    0.86982   0.13901   0.67179   Biso      1.000     C          -0.009581           
         C35       1.0000    0.13018   0.13901   0.67179   Biso      1.000     C          -0.009581           
         C36       1.0000    0.86981   0.86099   0.17175   Biso      1.000     C          -0.009999           
         C37       1.0000    0.63018   0.36099   0.17178   Biso      1.000     C          -0.009792           
         C38       1.0000    0.36982   0.63901   0.67177   Biso      1.000     C          -0.009775           
         C39       1.0000    0.63018   0.63901   0.67177   Biso      1.000     C          -0.009775           
         C40       1.0000    0.36982   0.36099   0.17178   Biso      1.000     C          -0.009792           
         C41       1.0000    0.22136   0.96802   0.24159   Biso      1.000     C          -0.007158           
         C42       1.0000    0.77864   0.03199   0.74160   Biso      1.000     C          -0.00703  
         C43       1.0000    0.22136   0.03199   0.74160   Biso      1.000     C          -0.00703  
         C44       1.0000    0.77864   0.96802   0.24159   Biso      1.000     C          -0.007158           
         C45       1.0000    0.72136   0.46801   0.24160   Biso      1.000     C          -0.007096           
         C46       1.0000    0.27864   0.53199   0.74159   Biso      1.000     C          -0.007035           
         C47       1.0000    0.72136   0.53199   0.74159   Biso      1.000     C          -0.007035           
         C48       1.0000    0.27864   0.46801   0.24160   Biso      1.000     C          -0.007096           
         C49       1.0000    0.12491   0.52269   0.56454   Biso      1.000     C          0.62079   
         C50       1.0000    0.87514   0.47737   0.06458   Biso      1.000     C          0.620706  
         C51       1.0000    0.12486   0.47737   0.06458   Biso      1.000     C          0.620706  
         C52       1.0000    0.87509   0.52269   0.56454   Biso      1.000     C          0.62079   
         C53       1.0000    0.62484   0.02260   0.56459   Biso      1.000     C          0.620377  
         C54       1.0000    0.37515   0.97740   0.06458   Biso      1.000     C          0.620713  
         C55       1.0000    0.62485   0.97740   0.06458   Biso      1.000     C          0.620713  
         C56       1.0000    0.37516   0.02260   0.56459   Biso      1.000     C          0.620377  
         C57       1.0000    0.05974   0.50792   0.62427   Biso      1.000     C          -0.366785           
         C58       1.0000    0.94026   0.49206   0.12427   Biso      1.000     C          -0.366913           
         C59       1.0000    0.05974   0.49206   0.12427   Biso      1.000     C          -0.366913           
         C60       1.0000    0.94026   0.50792   0.62427   Biso      1.000     C          -0.366786           
         C61       1.0000    0.55974   0.00795   0.62427   Biso      1.000     C          -0.366836           
         C62       1.0000    0.44026   0.99205   0.12426   Biso      1.000     C          -0.366962           
         C63       1.0000    0.55974   0.99205   0.12426   Biso      1.000     C          -0.366962           
         C64       1.0000    0.44026   0.00795   0.62427   Biso      1.000     C          -0.366836           
         C65       1.0000    0.00000   0.51574   0.54299   Biso      1.000     C          0.27075   
         C66       1.0000    0.00000   0.48428   0.04296   Biso      1.000     C          0.271157  
         C67       1.0000    0.50000   0.01569   0.54295   Biso      1.000     C          0.271245  
         C68       1.0000    0.50000   0.98426   0.04291   Biso      1.000     C          0.271315  
         C69       1.0000    0.00000   0.63040   0.47479   Biso      1.000     C          0.507992  
         C70       1.0000    0.00000   0.36938   0.97479   Biso      1.000     C          0.506238  
         C71       1.0000    0.50000   0.13061   0.47475   Biso      1.000     C          0.50629   
         C72       1.0000    0.50000   0.86938   0.97481   Biso      1.000     C          0.506995  
         H1        1.0000    0.21177   0.68998   0.17365   Biso      1.000     H          0.091543  
         H2        1.0000    0.78823   0.31002   0.67365   Biso      1.000     H          0.09155   
         H3        1.0000    0.21177   0.31002   0.67365   Biso      1.000     H          0.09155   
         H4        1.0000    0.78823   0.68998   0.17365   Biso      1.000     H          0.091543  
         H5        1.0000    0.71177   0.18998   0.17365   Biso      1.000     H          0.091451  
         H6        1.0000    0.28823   0.81002   0.67365   Biso      1.000     H          0.09147   
         H7        1.0000    0.71177   0.81002   0.67365   Biso      1.000     H          0.09147   
         H8        1.0000    0.28823   0.18998   0.17365   Biso      1.000     H          0.091451  
         H9        1.0000    0.28112   0.77171   0.22301   Biso      1.000     H          0.105907  
         H10       1.0000    0.71888   0.22829   0.72301   Biso      1.000     H          0.105902  
         H11       1.0000    0.28112   0.22829   0.72301   Biso      1.000     H          0.105902  
         H12       1.0000    0.71888   0.77171   0.22301   Biso      1.000     H          0.105907  
         H13       1.0000    0.78112   0.27171   0.22301   Biso      1.000     H          0.106014  
         H14       1.0000    0.21888   0.72829   0.72301   Biso      1.000     H          0.106073  
         H15       1.0000    0.78112   0.72829   0.72301   Biso      1.000     H          0.106073  
         H16       1.0000    0.21888   0.27171   0.22301   Biso      1.000     H          0.106014  
         H17       1.0000    0.27845   0.86148   0.42053   Biso      1.000     H          0.116632  
         H18       1.0000    0.72155   0.13852   0.92053   Biso      1.000     H          0.116674  
         H19       1.0000    0.27845   0.13852   0.92053   Biso      1.000     H          0.116674  
         H20       1.0000    0.72155   0.86148   0.42053   Biso      1.000     H          0.116632  
         H21       1.0000    0.77844   0.36147   0.42052   Biso      1.000     H          0.116667  
         H22       1.0000    0.22156   0.63853   0.92053   Biso      1.000     H          0.116749  
         H23       1.0000    0.77844   0.63853   0.92053   Biso      1.000     H          0.116749  
         H24       1.0000    0.22156   0.36147   0.42052   Biso      1.000     H          0.116667  
         H25       1.0000    0.20731   0.84363   0.50812   Biso      1.000     H          0.084715  
         H26       1.0000    0.79270   0.15637   0.00811   Biso      1.000     H          0.084781  
         H27       1.0000    0.20730   0.15637   0.00811   Biso      1.000     H          0.084781  
         H28       1.0000    0.79269   0.84363   0.50812   Biso      1.000     H          0.084715  
         H29       1.0000    0.70730   0.34363   0.50811   Biso      1.000     H          0.084794  
         H30       1.0000    0.29270   0.65637   0.00811   Biso      1.000     H          0.084767  
         H31       1.0000    0.70730   0.65637   0.00811   Biso      1.000     H          0.084767  
         H32       1.0000    0.29270   0.34363   0.50811   Biso      1.000     H          0.084794  
         H33       1.0000    0.11725   0.73588   0.44090   Biso      1.000     H          0.109845  
         H34       1.0000    0.88276   0.26413   0.94089   Biso      1.000     H          0.109737  
         H35       1.0000    0.11724   0.26413   0.94089   Biso      1.000     H          0.109737  
         H36       1.0000    0.88275   0.73588   0.44090   Biso      1.000     H          0.109845  
         H37       1.0000    0.61724   0.23587   0.44089   Biso      1.000     H          0.10974   
         H38       1.0000    0.38275   0.76413   0.94090   Biso      1.000     H          0.109728  
         H39       1.0000    0.61725   0.76413   0.94090   Biso      1.000     H          0.109728  
         H40       1.0000    0.38276   0.23587   0.44089   Biso      1.000     H          0.10974   
         H41       1.0000    0.11834   0.67042   0.29872   Biso      1.000     H          0.105797  
         H42       1.0000    0.88166   0.32958   0.79873   Biso      1.000     H          0.105753  
         H43       1.0000    0.11834   0.32958   0.79873   Biso      1.000     H          0.105753  
         H44       1.0000    0.88166   0.67042   0.29872   Biso      1.000     H          0.105797  
         H45       1.0000    0.61834   0.17042   0.29873   Biso      1.000     H          0.105621  
         H46       1.0000    0.38166   0.82958   0.79872   Biso      1.000     H          0.105642  
         H47       1.0000    0.61834   0.82958   0.79872   Biso      1.000     H          0.105642  
         H48       1.0000    0.38166   0.17042   0.29873   Biso      1.000     H          0.105621  
         H49       1.0000    0.10663   0.02908   0.32713   Biso      1.000     H          0.093359  
         H50       1.0000    0.89337   0.97092   0.82713   Biso      1.000     H          0.093452  
         H51       1.0000    0.10663   0.97092   0.82713   Biso      1.000     H          0.093452  
         H52       1.0000    0.89337   0.02908   0.32713   Biso      1.000     H          0.093359  
         H53       1.0000    0.60663   0.52908   0.32713   Biso      1.000     H          0.093456  
         H54       1.0000    0.39337   0.47092   0.82713   Biso      1.000     H          0.093392  
         H55       1.0000    0.60663   0.47092   0.82713   Biso      1.000     H          0.093392  
         H56       1.0000    0.39337   0.52908   0.32713   Biso      1.000     H          0.093456  
         H57       1.0000    0.11011   0.93968   0.45634   Biso      1.000     H          0.091091  
         H58       1.0000    0.88989   0.06033   0.95633   Biso      1.000     H          0.091132  
         H59       1.0000    0.11011   0.06033   0.95633   Biso      1.000     H          0.091132  
         H60       1.0000    0.88989   0.93968   0.45634   Biso      1.000     H          0.091091  
         H61       1.0000    0.61011   0.43967   0.45633   Biso      1.000     H          0.091206  
         H62       1.0000    0.38989   0.56033   0.95634   Biso      1.000     H          0.091208  
         H63       1.0000    0.61011   0.56033   0.95634   Biso      1.000     H          0.091208  
         H64       1.0000    0.38989   0.43967   0.45633   Biso      1.000     H          0.091206  
         H65       1.0000    0.10982   0.93937   0.13268   Biso      1.000     H          0.078911  
         H66       1.0000    0.89018   0.06063   0.63268   Biso      1.000     H          0.07884   
         H67       1.0000    0.10982   0.06063   0.63268   Biso      1.000     H          0.07884   
         H68       1.0000    0.89018   0.93937   0.13268   Biso      1.000     H          0.078911  
         H69       1.0000    0.60982   0.43937   0.13268   Biso      1.000     H          0.078848  
         H70       1.0000    0.39018   0.56063   0.63268   Biso      1.000     H          0.078903  
         H71       1.0000    0.60982   0.56063   0.63268   Biso      1.000     H          0.078903  
         H72       1.0000    0.39018   0.43937   0.13268   Biso      1.000     H          0.078848  
         H73       1.0000    0.11461   0.78631   0.11966   Biso      1.000     H          0.110845  
         H74       1.0000    0.88539   0.21368   0.61966   Biso      1.000     H          0.110758  
         H75       1.0000    0.11461   0.21368   0.61966   Biso      1.000     H          0.110758  
         H76       1.0000    0.88539   0.78631   0.11966   Biso      1.000     H          0.110845  
         H77       1.0000    0.61460   0.28632   0.11966   Biso      1.000     H          0.110612  
         H78       1.0000    0.38540   0.71368   0.61966   Biso      1.000     H          0.110637  
         H79       1.0000    0.61460   0.71368   0.61966   Biso      1.000     H          0.110637  
         H80       1.0000    0.38540   0.28632   0.11966   Biso      1.000     H          0.110612  
         H81       1.0000    0.20084   0.04610   0.20227   Biso      1.000     H          0.077147  
         H82       1.0000    0.79916   0.95390   0.70227   Biso      1.000     H          0.076987  
         H83       1.0000    0.20084   0.95390   0.70227   Biso      1.000     H          0.076987  
         H84       1.0000    0.79916   0.04610   0.20227   Biso      1.000     H          0.077147  
         H85       1.0000    0.70084   0.54610   0.20227   Biso      1.000     H          0.076963  
         H86       1.0000    0.29916   0.45390   0.70227   Biso      1.000     H          0.077015  
         H87       1.0000    0.70084   0.45390   0.70227   Biso      1.000     H          0.077015  
         H88       1.0000    0.29916   0.54610   0.20227   Biso      1.000     H          0.076963  
         H89       1.0000    0.27436   0.97270   0.24043   Biso      1.000     H          0.108091  
         H90       1.0000    0.72564   0.02730   0.74043   Biso      1.000     H          0.108007  
         H91       1.0000    0.27436   0.02730   0.74043   Biso      1.000     H          0.108007  
         H92       1.0000    0.72564   0.97270   0.24043   Biso      1.000     H          0.108091  
         H93       1.0000    0.77436   0.47270   0.24043   Biso      1.000     H          0.108181  
         H94       1.0000    0.22564   0.52730   0.74044   Biso      1.000     H          0.108173  
         H95       1.0000    0.77436   0.52730   0.74044   Biso      1.000     H          0.108173  
         H96       1.0000    0.22564   0.47270   0.24043   Biso      1.000     H          0.108181  
         H97       1.0000    0.05537   0.57239   0.69438   Biso      1.000     H          0.129333  
         H98       1.0000    0.94463   0.42760   0.19437   Biso      1.000     H          0.129814  
         H99       1.0000    0.05537   0.42760   0.19437   Biso      1.000     H          0.129814  
         H100      1.0000    0.94463   0.57239   0.69438   Biso      1.000     H          0.129332  
         H101      1.0000    0.55537   0.07239   0.69437   Biso      1.000     H          0.129927  
         H102      1.0000    0.44463   0.92761   0.19438   Biso      1.000     H          0.129748  
         H103      1.0000    0.55537   0.92761   0.19438   Biso      1.000     H          0.129748  
         H104      1.0000    0.44463   0.07239   0.69437   Biso      1.000     H          0.129927  
         H105      1.0000    0.05782   0.42175   0.66352   Biso      1.000     H          0.117507  
         H106      1.0000    0.94217   0.57827   0.16351   Biso      1.000     H          0.117674  
         H107      1.0000    0.05783   0.57827   0.16351   Biso      1.000     H          0.117674  
         H108      1.0000    0.94218   0.42175   0.66352   Biso      1.000     H          0.117506  
         H109      1.0000    0.55783   0.92174   0.66351   Biso      1.000     H          0.117676  
         H110      1.0000    0.44218   0.07826   0.16352   Biso      1.000     H          0.117618  
         H111      1.0000    0.55782   0.07826   0.16352   Biso      1.000     H          0.117618  
         H112      1.0000    0.44217   0.92174   0.66351   Biso      1.000     H          0.117676  
         H113      1.0000    0.00000   0.45910   0.38342   Biso      1.000     H          0.336919  
         H114      1.0000    0.00000   0.54084   0.88344   Biso      1.000     H          0.336766  
         H115      1.0000    0.50000   0.95914   0.38346   Biso      1.000     H          0.336757  
         H116      1.0000    0.50000   0.04088   0.88347   Biso      1.000     H          0.33669   
         N1        1.0000    0.20571   0.75165   0.34893   Biso      1.000     N          -0.151193           
         N2        1.0000    0.79428   0.24835   0.84893   Biso      1.000     N          -0.151346           
         N3        1.0000    0.20572   0.24835   0.84893   Biso      1.000     N          -0.151346           
         N4        1.0000    0.79429   0.75165   0.34893   Biso      1.000     N          -0.151193           
         N5        1.0000    0.70572   0.25165   0.34893   Biso      1.000     N          -0.151343           
         N6        1.0000    0.29428   0.74835   0.84893   Biso      1.000     N          -0.151277           
         N7        1.0000    0.70572   0.74835   0.84893   Biso      1.000     N          -0.151277           
         N8        1.0000    0.29428   0.25165   0.34893   Biso      1.000     N          -0.151343           
         N9        1.0000    0.10551   0.84994   0.29521   Biso      1.000     N          -0.143421           
         N10       1.0000    0.89447   0.15004   0.79519   Biso      1.000     N          -0.143767           
         N11       1.0000    0.10553   0.15004   0.79519   Biso      1.000     N          -0.143767           
         N12       1.0000    0.89449   0.84994   0.29521   Biso      1.000     N          -0.143421           
         N13       1.0000    0.60554   0.34996   0.29519   Biso      1.000     N          -0.143599           
         N14       1.0000    0.39447   0.65004   0.79519   Biso      1.000     N          -0.143931           
         N15       1.0000    0.60553   0.65004   0.79519   Biso      1.000     N          -0.143931           
         N16       1.0000    0.39446   0.34996   0.29519   Biso      1.000     N          -0.143599           
         N17       1.0000    0.19871   0.95981   0.36604   Biso      1.000     N          -0.15718  
         N18       1.0000    0.80128   0.04019   0.86604   Biso      1.000     N          -0.15699  
         N19       1.0000    0.19872   0.04019   0.86604   Biso      1.000     N          -0.15699  
         N20       1.0000    0.80129   0.95981   0.36604   Biso      1.000     N          -0.15718  
         N21       1.0000    0.69873   0.45981   0.36604   Biso      1.000     N          -0.156416           
         N22       1.0000    0.30127   0.54019   0.86604   Biso      1.000     N          -0.156587           
         N23       1.0000    0.69873   0.54019   0.86604   Biso      1.000     N          -0.156587           
         N24       1.0000    0.30127   0.45981   0.36604   Biso      1.000     N          -0.156416           
         N25       1.0000    0.20100   0.86861   0.16978   Biso      1.000     N          -0.158023           
         N26       1.0000    0.79899   0.13139   0.66976   Biso      1.000     N          -0.157905           
         N27       1.0000    0.20101   0.13139   0.66976   Biso      1.000     N          -0.157905           
         N28       1.0000    0.79900   0.86861   0.16978   Biso      1.000     N          -0.158023           
         N29       1.0000    0.70101   0.36861   0.16977   Biso      1.000     N          -0.157817           
         N30       1.0000    0.29899   0.63139   0.66977   Biso      1.000     N          -0.157797           
         N31       1.0000    0.70101   0.63139   0.66977   Biso      1.000     N          -0.157797           
         N32       1.0000    0.29899   0.36861   0.16977   Biso      1.000     N          -0.157817           
         O1        1.0000    0.00000   0.72269   0.53243   Biso      1.000     O          -0.571892           
         O2        1.0000    0.00000   0.27719   0.03259   Biso      1.000     O          -0.569235           
         O3        1.0000    0.50000   0.22277   0.53256   Biso      1.000     O          -0.569087           
         O4        1.0000    0.50000   0.77734   0.03248   Biso      1.000     O          -0.568498           
         O5        1.0000    0.00000   0.62121   0.36122   Biso      1.000     O          -0.562797           
         O6        1.0000    0.00000   0.37894   0.86097   Biso      1.000     O          -0.562237           
         O7        1.0000    0.50000   0.12108   0.36104   Biso      1.000     O          -0.562039           
         O8        1.0000    0.50000   0.87888   0.86112   Biso      1.000     O          -0.563269           
         O9        1.0000    0.14770   0.44223   0.50264   Biso      1.000     O          -0.599865           
         O10       1.0000    0.85227   0.55776   0.00262   Biso      1.000     O          -0.599259           
         O11       1.0000    0.14773   0.55776   0.00262   Biso      1.000     O          -0.599259           
         O12       1.0000    0.85230   0.44223   0.50264   Biso      1.000     O          -0.599865           
         O13       1.0000    0.64775   0.94225   0.50262   Biso      1.000     O          -0.598728           
         O14       1.0000    0.35226   0.05775   0.00263   Biso      1.000     O          -0.598878           
         O15       1.0000    0.64774   0.05775   0.00263   Biso      1.000     O          -0.598878           
         O16       1.0000    0.35225   0.94225   0.50262   Biso      1.000     O          -0.598728           
         O17       1.0000    0.15443   0.61798   0.58395   Biso      1.000     O          -0.575126           
         O18       1.0000    0.84554   0.38200   0.08394   Biso      1.000     O          -0.575625           
         O19       1.0000    0.15446   0.38200   0.08394   Biso      1.000     O          -0.575625           
         O20       1.0000    0.84557   0.61798   0.58395   Biso      1.000     O          -0.575126           
         O21       1.0000    0.65448   0.11802   0.58393   Biso      1.000     O          -0.575993           
         O22       1.0000    0.34553   0.88198   0.08394   Biso      1.000     O          -0.576316           
         O23       1.0000    0.65447   0.88198   0.08394   Biso      1.000     O          -0.576316           
         O24       1.0000    0.34552   0.11802   0.58393   Biso      1.000     O          -0.575993           
         O25       1.0000    0.00000   0.42203   0.46174   Biso      1.000     O          -0.537516           
         O26       1.0000    0.00000   0.57808   0.96175   Biso      1.000     O          -0.536336           
         O27       1.0000    0.50000   0.92196   0.46173   Biso      1.000     O          -0.535172           
         O28       1.0000    0.50000   0.07805   0.96173   Biso      1.000     O          -0.535334           
         Ag1       1.0000    0.24786   0.59954   0.47645   Biso      1.000     Ag          0.315851  
         Ag2       1.0000    0.75216   0.40046   0.97646   Biso      1.000     Ag          0.316293  
         Ag3       1.0000    0.24784   0.40046   0.97646   Biso      1.000     Ag          0.316293  
         Ag4       1.0000    0.75214   0.59954   0.47645   Biso      1.000     Ag          0.315851  
         Ag5       1.0000    0.74783   0.09954   0.47647   Biso      1.000     Ag          0.316463  
         Ag6       1.0000    0.25216   0.90047   0.97645   Biso      1.000     Ag          0.316441  
         Ag7       1.0000    0.74784   0.90047   0.97645   Biso      1.000     Ag          0.316441  
         Ag8       1.0000    0.25217   0.09954   0.47647   Biso      1.000     Ag          0.316463  
         Ag9       1.0000    0.00000   0.81958   0.31014   Biso      1.000     Ag          0.298055  
         Ag10      1.0000    0.00000   0.18049   0.81024   Biso      1.000     Ag          0.298561  
         Ag11      1.0000    0.50000   0.31951   0.31022   Biso      1.000     Ag          0.298353  
         Ag12      1.0000    0.50000   0.68048   0.81020   Biso      1.000     Ag          0.298548 