
##########################################################################
#               Crystallographic Information Format file
#               Produced by PyCifRW module
#
#  This is a CIF file.  CIF has been adopted by the International
#  Union of Crystallography as the standard for data archiving and
#  transmission.
#
#  For information on this file format, follow the CIF links at
#  http://www.iucr.org
##########################################################################

data_image0

_cell_length_a                          10.4005
_cell_length_b                          10.6486
_cell_length_c                          13.6321
_cell_angle_alpha                       105.307
_cell_angle_beta                        93.835
_cell_angle_gamma                       108.935
_symmetry_space_group_name_H-M          'P 1'
_symmetry_int_tables_number             1
loop_
  _symmetry_equiv_pos_as_xyz
         'x, y, z' 
loop_
  _atom_site_label
  _atom_site_occupancy
  _atom_site_fract_x
  _atom_site_fract_y
  _atom_site_fract_z
  _atom_site_thermal_displace_type
  _atom_site_B_iso_or_equiv
  _atom_site_type_symbol
  _atom_site_charge
         C1        1.0000    0.12780   0.48670   0.99110   Biso      1.000     C          -0.043992           
         C2        1.0000    0.38810   0.89450   0.93420   Biso      1.000     C          -0.135679           
         C3        1.0000    0.36680   0.00120   0.00560   Biso      1.000     C          -0.061444000000000006         
         C4        1.0000    0.47980   0.10880   0.07270   Biso      1.000     C          -0.00297  
         C5        1.0000    0.06620   0.80770   0.59480   Biso      1.000     C          0.634989  
         C6        1.0000    0.19780   0.12610   0.68960   Biso      1.000     C          0.702704  
         C7        1.0000    0.03450   0.91130   0.54960   Biso      1.000     C          -0.061251           
         C8        1.0000    0.05900   0.14150   0.54240   Biso      1.000     C          -0.11451700000000001          
         C9        1.0000    0.09380   0.05660   0.59250   Biso      1.000     C          -0.078224           
         C10       1.0000    0.73290   0.52170   0.02620   Biso      1.000     C          0.744236  
         C11       1.0000    0.99030   0.76840   0.10960   Biso      1.000     C          0.592692  
         C12       1.0000    0.87910   0.38890   0.95130   Biso      1.000     C          -0.133392           
         C13       1.0000    0.87220   0.51330   0.00890   Biso      1.000     C          -0.043989           
         C14       1.0000    0.99430   0.62720   0.05820   Biso      1.000     C          0.011648  
         C15       1.0000    0.77690   0.00040   0.99040   Biso      1.000     C          0.717549  
         C16       1.0000    0.53060   0.76600   0.84920   Biso      1.000     C          0.628616  
         C17       1.0000    0.61190   0.10550   0.06580   Biso      1.000     C          -0.135679           
         C18       1.0000    0.63320   0.99880   0.99440   Biso      1.000     C          -0.06144500000000001          
         C19       1.0000    0.52020   0.89120   0.92730   Biso      1.000     C          -0.00297  
         C20       1.0000    0.00570   0.37280   0.94180   Biso      1.000     C          0.011648  
         C21       1.0000    0.12090   0.61110   0.04870   Biso      1.000     C          -0.13339  
         C22       1.0000    0.00970   0.23160   0.89040   Biso      1.000     C          0.592693  
         C23       1.0000    0.26710   0.47830   0.97380   Biso      1.000     C          0.744236  
         C24       1.0000    0.90620   0.94340   0.40750   Biso      1.000     C          -0.078227           
         C25       1.0000    0.94100   0.85850   0.45760   Biso      1.000     C          -0.114515           
         C26       1.0000    0.96550   0.08870   0.45040   Biso      1.000     C          -0.06125  
         C27       1.0000    0.80220   0.87390   0.31040   Biso      1.000     C          0.702704  
         C28       1.0000    0.93380   0.19230   0.40520   Biso      1.000     C          0.634989  
         C29       1.0000    0.46940   0.23400   0.15080   Biso      1.000     C          0.628617  
         C30       1.0000    0.22310   0.99960   0.00960   Biso      1.000     C          0.717549  
         Er1       1.0000    0.47639   0.41994   0.81192   Biso      1.000     Er          2.169306  
         Er2       1.0000    0.98137   0.94972   0.81342   Biso      1.000     Er          2.0886139999999997  
         Er3       1.0000    0.52361   0.58006   0.18808   Biso      1.000     Er          2.169306  
         Er4       1.0000    0.01863   0.05028   0.18658   Biso      1.000     Er          2.0886139999999997  
         H1        1.0000    0.20190   0.68540   0.08160   Biso      1.000     H          0.1268    
         H2        1.0000    0.31290   0.82310   0.88970   Biso      1.000     H          0.13981   
         H3        1.0000    0.09960   0.23760   0.57120   Biso      1.000     H          0.133349  
         H4        1.0000    0.79810   0.31460   0.91840   Biso      1.000     H          0.126801  
         H5        1.0000    0.68710   0.17690   0.11030   Biso      1.000     H          0.13981   
         H6        1.0000    0.90040   0.76240   0.42880   Biso      1.000     H          0.133349  
         O1        1.0000    0.96760   0.20110   0.32000   Biso      1.000     O          -0.757058           
         O2        1.0000    0.46100   0.33090   0.11700   Biso      1.000     O          -0.752395           
         O3        1.0000    0.48050   0.23670   0.24320   Biso      1.000     O          -0.585306           
         O4        1.0000    0.35600   0.50990   0.05130   Biso      1.000     O          -0.766417           
         O5        1.0000    0.70200   0.76740   0.30770   Biso      1.000     O          -0.754758           
         O6        1.0000    0.07790   0.18320   0.94040   Biso      1.000     O          -0.629617           
         O7        1.0000    0.93890   0.15910   0.80290   Biso      1.000     O          -0.639029           
         O8        1.0000    0.82010   0.92370   0.23640   Biso      1.000     O          -0.652556           
         O9        1.0000    0.19530   0.05550   0.09360   Biso      1.000     O          -0.6877840000000001           
         O10       1.0000    0.28560   0.44550   0.88280   Biso      1.000     O          -0.62489  
         O11       1.0000    0.13900   0.93840   0.92640   Biso      1.000     O          -0.6852159999999999           
         O12       1.0000    0.06110   0.84090   0.19710   Biso      1.000     O          -0.639029           
         O13       1.0000    0.03240   0.79890   0.68000   Biso      1.000     O          -0.757058           
         O14       1.0000    0.29800   0.23260   0.69230   Biso      1.000     O          -0.7547590000000001           
         O15       1.0000    0.17990   0.07630   0.76360   Biso      1.000     O          -0.652556           
         O16       1.0000    0.92210   0.81680   0.05960   Biso      1.000     O          -0.629617           
         O17       1.0000    0.71440   0.55450   0.11720   Biso      1.000     O          -0.624891           
         O18       1.0000    0.64400   0.49010   0.94870   Biso      1.000     O          -0.766418           
         O19       1.0000    0.51950   0.76330   0.75680   Biso      1.000     O          -0.585305           
         O20       1.0000    0.53900   0.66910   0.88300   Biso      1.000     O          -0.752395           
         O21       1.0000    0.80470   0.94450   0.90640   Biso      1.000     O          -0.6877840000000001           
         O22       1.0000    0.86100   0.06160   0.07360   Biso      1.000     O          -0.6852159999999999           
         O23       1.0000    0.11660   0.73010   0.53930   Biso      1.000     O          -0.523822           
         O24       1.0000    0.88340   0.26990   0.46070   Biso      1.000     O          -0.523821 