
##########################################################################
#               Crystallographic Information Format file
#               Produced by PyCifRW module
#
#  This is a CIF file.  CIF has been adopted by the International
#  Union of Crystallography as the standard for data archiving and
#  transmission.
#
#  For information on this file format, follow the CIF links at
#  http://www.iucr.org
##########################################################################

data_image0

_cell_length_a                          9.8155
_cell_length_b                          10.1884
_cell_length_c                          12.871
_cell_angle_alpha                       69.002
_cell_angle_beta                        69.676
_cell_angle_gamma                       63.281
_symmetry_space_group_name_H-M          'P 1'
_symmetry_int_tables_number             1
loop_
  _symmetry_equiv_pos_as_xyz
         'x, y, z' 
loop_
  _atom_site_label
  _atom_site_occupancy
  _atom_site_fract_x
  _atom_site_fract_y
  _atom_site_fract_z
  _atom_site_thermal_displace_type
  _atom_site_B_iso_or_equiv
  _atom_site_type_symbol
  _atom_site_charge
         C1        1.0000    0.19340   0.88490   0.99690   Biso      1.000     C          -0.067899           
         C2        1.0000    0.96550   0.65310   0.48180   Biso      1.000     C          -0.016937           
         C3        1.0000    0.61750   0.06170   0.96160   Biso      1.000     C          0.024398  
         C4        1.0000    0.53590   0.07130   0.88670   Biso      1.000     C          0.052135  
         C5        1.0000    0.42230   0.01060   0.92050   Biso      1.000     C          0.018188  
         C6        1.0000    0.33920   0.01940   0.84550   Biso      1.000     C          -0.14188  
         C7        1.0000    0.23160   0.95760   0.88280   Biso      1.000     C          -0.066034           
         C8        1.0000    0.31390   0.92140   0.31440   Biso      1.000     C          0.123401  
         C9        1.0000    0.73260   0.12430   0.92680   Biso      1.000     C          -0.137024           
         C10       1.0000    0.48200   0.70270   0.28390   Biso      1.000     C          -0.103865           
         C11       1.0000    0.40940   0.69130   0.39320   Biso      1.000     C          -0.036834           
         C12       1.0000    0.08730   0.68860   0.78200   Biso      1.000     C          0.565587  
         C13       1.0000    0.04190   0.59360   0.89290   Biso      1.000     C          -0.008815           
         C14       1.0000    0.95000   0.65430   0.98650   Biso      1.000     C          -0.11288  
         C15       1.0000    0.94840   0.60070   0.40420   Biso      1.000     C          -0.111924           
         C16       1.0000    0.09180   0.43730   0.90840   Biso      1.000     C          -0.118228           
         C17       1.0000    0.92550   0.81920   0.46320   Biso      1.000     C          0.590852  
         C18       1.0000    0.76840   0.04240   0.11720   Biso      1.000     C          -0.066067           
         C19       1.0000    0.80660   0.11510   0.00310   Biso      1.000     C          -0.067887           
         C20       1.0000    0.01440   0.55250   0.57700   Biso      1.000     C          -0.108098           
         C21       1.0000    0.03450   0.34690   0.51820   Biso      1.000     C          -0.016937           
         C22       1.0000    0.68610   0.07860   0.68560   Biso      1.000     C          0.123401  
         C23       1.0000    0.91270   0.31140   0.21800   Biso      1.000     C          0.565587  
         C24       1.0000    0.51800   0.29730   0.71610   Biso      1.000     C          -0.103864           
         C25       1.0000    0.38250   0.93830   0.03840   Biso      1.000     C          0.024398  
         C26       1.0000    0.59060   0.30870   0.60680   Biso      1.000     C          -0.036834           
         C27       1.0000    0.46410   0.92870   0.11330   Biso      1.000     C          0.052134  
         C28       1.0000    0.95810   0.40640   0.10710   Biso      1.000     C          -0.008816           
         C29       1.0000    0.05160   0.39930   0.59580   Biso      1.000     C          -0.11192  
         C30       1.0000    0.57770   0.98940   0.07950   Biso      1.000     C          0.018186  
         C31       1.0000    0.05000   0.34570   0.01350   Biso      1.000     C          -0.112877           
         C32       1.0000    0.98560   0.44750   0.42300   Biso      1.000     C          -0.108094           
         C33       1.0000    0.26740   0.87570   0.07320   Biso      1.000     C          -0.137016           
         C34       1.0000    0.90820   0.56270   0.09160   Biso      1.000     C          -0.118225           
         C35       1.0000    0.07450   0.18080   0.53680   Biso      1.000     C          0.590852  
         C36       1.0000    0.66080   0.98060   0.15450   Biso      1.000     C          -0.141849           
         Cd1       1.0000    0.83929   0.12656   0.41740   Biso      1.000     Cd          0.930434  
         Cd2       1.0000    0.16071   0.87344   0.58260   Biso      1.000     Cd          0.930434  
         H1        1.0000    0.91220   0.66790   0.33960   Biso      1.000     H          0.11455   
         H2        1.0000    0.42830   0.60080   0.44900   Biso      1.000     H          0.112653  
         H3        1.0000    0.63950   0.93070   0.23100   Biso      1.000     H          0.115594  
         H4        1.0000    0.55720   0.62500   0.24960   Biso      1.000     H          0.138822  
         H5        1.0000    0.25210   0.02410   0.30210   Biso      1.000     H          0.108933  
         H6        1.0000    0.02310   0.58780   0.63090   Biso      1.000     H          0.109116  
         H7        1.0000    0.24120   0.82720   0.14950   Biso      1.000     H          0.118514  
         H8        1.0000    0.11780   0.84260   0.02120   Biso      1.000     H          0.108885  
         H9        1.0000    0.81920   0.03690   0.16860   Biso      1.000     H          0.117992  
         H10       1.0000    0.91600   0.75790   0.97860   Biso      1.000     H          0.110294  
         H11       1.0000    0.08400   0.24210   0.02140   Biso      1.000     H          0.110293  
         H12       1.0000    0.84580   0.60610   0.15300   Biso      1.000     H          0.111227  
         H13       1.0000    0.97690   0.41220   0.36910   Biso      1.000     H          0.109116  
         H14       1.0000    0.08780   0.33210   0.66040   Biso      1.000     H          0.11455   
         H15       1.0000    0.57170   0.39920   0.55100   Biso      1.000     H          0.112653  
         H16       1.0000    0.44280   0.37500   0.75040   Biso      1.000     H          0.138822  
         H17       1.0000    0.74790   0.97590   0.69790   Biso      1.000     H          0.108933  
         H18       1.0000    0.15420   0.39390   0.84700   Biso      1.000     H          0.111228  
         H19       1.0000    0.88220   0.15740   0.97880   Biso      1.000     H          0.108884  
         H20       1.0000    0.36050   0.06930   0.76900   Biso      1.000     H          0.115596  
         H21       1.0000    0.18080   0.96310   0.83140   Biso      1.000     H          0.11799   
         H22       1.0000    0.75880   0.17280   0.85050   Biso      1.000     H          0.118514  
         N1        1.0000    0.57820   0.14480   0.76780   Biso      1.000     N          0.018871  
         N2        1.0000    0.69470   0.17410   0.58650   Biso      1.000     N          -0.281829           
         N3        1.0000    0.30530   0.82590   0.41350   Biso      1.000     N          -0.281829           
         N4        1.0000    0.42180   0.85520   0.23220   Biso      1.000     N          0.01887   
         O1        1.0000    0.19820   0.62930   0.70620   Biso      1.000     O          -0.574286           
         O2        1.0000    0.01660   0.82960   0.76610   Biso      1.000     O          -0.553424           
         O3        1.0000    0.14510   0.09090   0.61190   Biso      1.000     O          -0.549379           
         O4        1.0000    0.04910   0.13360   0.47090   Biso      1.000     O          -0.601122           
         O5        1.0000    0.98340   0.17040   0.23390   Biso      1.000     O          -0.553424           
         O6        1.0000    0.80180   0.37070   0.29380   Biso      1.000     O          -0.574286           
         O7        1.0000    0.95090   0.86640   0.52910   Biso      1.000     O          -0.601122           
         O8        1.0000    0.85490   0.90910   0.38810   Biso      1.000     O          -0.549379 