
##########################################################################
#               Crystallographic Information Format file
#               Produced by PyCifRW module
#
#  This is a CIF file.  CIF has been adopted by the International
#  Union of Crystallography as the standard for data archiving and
#  transmission.
#
#  For information on this file format, follow the CIF links at
#  http://www.iucr.org
##########################################################################

data_image0

_cell_length_a                          9.997
_cell_length_b                          13.1442
_cell_length_c                          16.458
_cell_angle_alpha                       101.096
_cell_angle_beta                        92.796
_cell_angle_gamma                       96.03
_symmetry_space_group_name_H-M          'P 1'
_symmetry_int_tables_number             1
loop_
  _symmetry_equiv_pos_as_xyz
         'x, y, z' 
loop_
  _atom_site_label
  _atom_site_occupancy
  _atom_site_fract_x
  _atom_site_fract_y
  _atom_site_fract_z
  _atom_site_thermal_displace_type
  _atom_site_B_iso_or_equiv
  _atom_site_type_symbol
  _atom_site_charge
         C1        1.0000    0.68230   0.68890   0.92050   Biso      1.000     C          -0.030317           
         C2        1.0000    0.43600   0.88110   0.02340   Biso      1.000     C          -0.154541           
         C3        1.0000    0.42190   0.90890   0.10760   Biso      1.000     C          0.13968699999999998           
         C4        1.0000    0.19040   0.91090   0.08380   Biso      1.000     C          0.10851300000000001           
         C5        1.0000    0.19830   0.88170   0.99920   Biso      1.000     C          -0.135409           
         C6        1.0000    0.32320   0.86640   0.96860   Biso      1.000     C          0.026032  
         C7        1.0000    0.89370   0.32410   0.86720   Biso      1.000     C          0.596252  
         C8        1.0000    0.98860   0.37050   0.01750   Biso      1.000     C          -0.161787           
         C9        1.0000    0.97530   0.40450   0.10080   Biso      1.000     C          0.131632  
         C10       1.0000    0.74970   0.42350   0.07410   Biso      1.000     C          0.12604400000000002           
         C11       1.0000    0.75750   0.38930   0.98980   Biso      1.000     C          -0.16534200000000002          
         C12       1.0000    0.87890   0.36270   0.96060   Biso      1.000     C          0.029744999999999997          
         C13       1.0000    0.42440   0.01640   0.33130   Biso      1.000     C          0.618042  
         C14       1.0000    0.37770   0.81250   0.38500   Biso      1.000     C          0.602881  
         C15       1.0000    0.47460   0.90620   0.52550   Biso      1.000     C          -0.160658           
         C16       1.0000    0.46660   0.00600   0.41830   Biso      1.000     C          -0.051203           
         C17       1.0000    0.44000   0.91050   0.44330   Biso      1.000     C          -0.001198           
         C18       1.0000    0.07920   0.44950   0.65850   Biso      1.000     C          0.623688  
         C19       1.0000    0.98880   0.65340   0.65190   Biso      1.000     C          0.626429  
         C20       1.0000    0.96650   0.59900   0.49690   Biso      1.000     C          -0.14213699999999999          
         C21       1.0000    0.33860   0.83200   0.87620   Biso      1.000     C          0.597434  
         C22       1.0000    0.03600   0.47520   0.57610   Biso      1.000     C          -0.043088999999999995         
         C23       1.0000    0.76500   0.81950   0.07460   Biso      1.000     C          -0.06543600000000001          
         C24       1.0000    0.64440   0.66190   0.99480   Biso      1.000     C          -0.17213299999999998          
         C25       1.0000    0.24250   0.61070   0.01020   Biso      1.000     C          -0.165347           
         C26       1.0000    0.12110   0.63730   0.03940   Biso      1.000     C          0.029745999999999998          
         C27       1.0000    0.57560   0.98360   0.66870   Biso      1.000     C          0.618037  
         C28       1.0000    0.62230   0.18750   0.61500   Biso      1.000     C          0.602884  
         C29       1.0000    0.52540   0.09380   0.47450   Biso      1.000     C          -0.160663           
         C30       1.0000    0.53340   0.99400   0.58170   Biso      1.000     C          -0.051193999999999996         
         C31       1.0000    0.56000   0.08950   0.55670   Biso      1.000     C          -0.0012   
         C32       1.0000    0.92080   0.55050   0.34150   Biso      1.000     C          0.623687  
         C33       1.0000    0.01120   0.34660   0.34810   Biso      1.000     C          0.626433  
         C34       1.0000    0.03350   0.40100   0.50310   Biso      1.000     C          -0.14214000000000002          
         C35       1.0000    0.96400   0.52480   0.42390   Biso      1.000     C          -0.043088999999999995         
         C36       1.0000    0.99820   0.42500   0.42680   Biso      1.000     C          -0.018956           
         C37       1.0000    0.81920   0.82140   0.84980   Biso      1.000     C          0.61821   
         C38       1.0000    0.63930   0.60880   0.84210   Biso      1.000     C          0.6340859999999999  
         C39       1.0000    0.62900   0.68550   0.14630   Biso      1.000     C          0.615971  
         C40       1.0000    0.81120   0.89540   0.15400   Biso      1.000     C          0.600222  
         C41       1.0000    0.80480   0.84530   0.00070   Biso      1.000     C          -0.141784           
         C42       1.0000    0.76340   0.78300   0.92380   Biso      1.000     C          -0.040175           
         C43       1.0000    0.01140   0.62950   0.98250   Biso      1.000     C          -0.16178499999999998          
         C44       1.0000    0.68300   0.72610   0.07220   Biso      1.000     C          -0.020856           
         C45       1.0000    0.00180   0.57500   0.57320   Biso      1.000     C          -0.018951           
         C46       1.0000    0.18080   0.17860   0.15020   Biso      1.000     C          0.618218  
         C47       1.0000    0.36070   0.39120   0.15790   Biso      1.000     C          0.6340939999999999  
         C48       1.0000    0.66140   0.16800   0.12380   Biso      1.000     C          0.597444  
         C49       1.0000    0.56400   0.11890   0.97660   Biso      1.000     C          -0.154539           
         C50       1.0000    0.57810   0.09110   0.89240   Biso      1.000     C          0.139691  
         C51       1.0000    0.80960   0.08910   0.91620   Biso      1.000     C          0.108516  
         C52       1.0000    0.80170   0.11830   0.00080   Biso      1.000     C          -0.135407           
         C53       1.0000    0.67680   0.13360   0.03140   Biso      1.000     C          0.026027999999999996          
         C54       1.0000    0.10630   0.67590   0.13280   Biso      1.000     C          0.596249  
         C55       1.0000    0.25030   0.57650   0.92590   Biso      1.000     C          0.126049  
         C56       1.0000    0.02470   0.59550   0.89920   Biso      1.000     C          0.131634  
         C57       1.0000    0.37100   0.31450   0.85370   Biso      1.000     C          0.61597   
         C58       1.0000    0.18880   0.10460   0.84600   Biso      1.000     C          0.600222  
         C59       1.0000    0.19520   0.15470   0.99930   Biso      1.000     C          -0.141781           
         C60       1.0000    0.23660   0.21700   0.07620   Biso      1.000     C          -0.04018  
         C61       1.0000    0.31770   0.31110   0.07950   Biso      1.000     C          -0.030322           
         C62       1.0000    0.35560   0.33810   0.00520   Biso      1.000     C          -0.172129           
         C63       1.0000    0.31700   0.27390   0.92780   Biso      1.000     C          -0.020853           
         C64       1.0000    0.23500   0.18050   0.92540   Biso      1.000     C          -0.06543  
         H1        1.0000    0.50300   0.08000   0.85250   Biso      1.000     H          0.121852  
         H2        1.0000    0.85190   0.45780   0.18260   Biso      1.000     H          0.294134  
         H3        1.0000    0.66910   0.44330   0.09860   Biso      1.000     H          0.11466900000000001           
         H4        1.0000    0.68740   0.38270   0.95440   Biso      1.000     H          0.141654  
         H5        1.0000    0.40540   0.39900   0.00660   Biso      1.000     H          0.124954  
         H6        1.0000    0.94470   0.66440   0.49280   Biso      1.000     H          0.127849  
         H7        1.0000    0.13750   0.09350   0.99550   Biso      1.000     H          0.11945399999999999           
         H8        1.0000    0.04440   0.40770   0.13740   Biso      1.000     H          0.12250699999999999           
         H9        1.0000    0.45460   0.84880   0.54630   Biso      1.000     H          0.122147  
         H10       1.0000    0.06450   0.35000   0.99870   Biso      1.000     H          0.133234  
         H11       1.0000    0.11380   0.86730   0.96120   Biso      1.000     H          0.135988  
         H12       1.0000    0.11090   0.92790   0.10740   Biso      1.000     H          0.116097  
         H13       1.0000    0.70010   0.06090   0.80800   Biso      1.000     H          0.287939  
         H14       1.0000    0.88910   0.07210   0.89260   Biso      1.000     H          0.1161    
         H15       1.0000    0.88620   0.13270   0.03880   Biso      1.000     H          0.135988  
         H16       1.0000    0.93550   0.65000   0.00130   Biso      1.000     H          0.133234  
         H17       1.0000    0.95560   0.59230   0.86260   Biso      1.000     H          0.12250799999999999           
         H18       1.0000    0.14810   0.54220   0.81740   Biso      1.000     H          0.294134  
         H19       1.0000    0.48350   0.13160   0.00010   Biso      1.000     H          0.13125699999999998           
         H20       1.0000    0.33090   0.55670   0.90140   Biso      1.000     H          0.11466900000000001           
         H21       1.0000    0.54540   0.15120   0.45370   Biso      1.000     H          0.122145  
         H22       1.0000    0.05530   0.33560   0.50720   Biso      1.000     H          0.127849  
         H23       1.0000    0.86250   0.90650   0.00450   Biso      1.000     H          0.119452  
         H24       1.0000    0.51650   0.86840   0.99990   Biso      1.000     H          0.13125699999999998           
         H25       1.0000    0.49700   0.92000   0.14750   Biso      1.000     H          0.12185   
         H26       1.0000    0.29990   0.93910   0.19200   Biso      1.000     H          0.287936  
         H27       1.0000    0.31260   0.61730   0.04560   Biso      1.000     H          0.141653  
         H28       1.0000    0.59460   0.60100   0.99340   Biso      1.000     H          0.12495099999999999           
         Mn1       1.0000    0.11703   0.25982   0.73811   Biso      1.000     Mn          1.133813  
         Mn2       1.0000    0.37677   0.63014   0.24243   Biso      1.000     Mn          1.1052879999999998  
         Mn3       1.0000    0.53986   0.77702   0.74121   Biso      1.000     Mn          1.149023  
         Mn4       1.0000    0.91640   0.13242   0.23824   Biso      1.000     Mn          1.096259  
         Mn5       1.0000    0.88297   0.74018   0.26189   Biso      1.000     Mn          1.133799  
         Mn6       1.0000    0.62323   0.36986   0.75757   Biso      1.000     Mn          1.1052899999999999  
         Mn7       1.0000    0.46014   0.22298   0.25879   Biso      1.000     Mn          1.149132  
         Mn8       1.0000    0.08360   0.86758   0.76176   Biso      1.000     Mn          1.096255  
         N1        1.0000    0.69920   0.07660   0.86490   Biso      1.000     N          -0.10116699999999999          
         N2        1.0000    0.14290   0.56970   0.87320   Biso      1.000     N          -0.09690800000000001          
         N3        1.0000    0.85710   0.43030   0.12680   Biso      1.000     N          -0.09690900000000001          
         N4        1.0000    0.30080   0.92340   0.13510   Biso      1.000     N          -0.101171           
         O1        1.0000    0.74100   0.84250   0.79502   Biso      1.000     O          -0.585229           
         O2        1.0000    0.86950   0.98270   0.14856   Biso      1.000     O          -0.567322           
         O3        1.0000    0.70810   0.64700   0.19139   Biso      1.000     O          -0.601931           
         O4        1.0000    0.50580   0.68650   0.15353   Biso      1.000     O          -0.539716           
         O5        1.0000    0.66070   0.51800   0.84524   Biso      1.000     O          -0.5642010000000001           
         O6        1.0000    0.58350   0.63460   0.78084   Biso      1.000     O          -0.579259           
         O7        1.0000    0.94490   0.83530   0.85147   Biso      1.000     O          -0.558717           
         O8        1.0000    0.92730   0.26580   0.33410   Biso      1.000     O          -0.6076159999999999           
         O9        1.0000    0.67900   0.03890   0.70328   Biso      1.000     O          -0.541826           
         O10       1.0000    0.84920   0.48200   0.29024   Biso      1.000     O          -0.579091           
         O11       1.0000    0.96180   0.64030   0.33123   Biso      1.000     O          -0.5916060000000001           
         O12       1.0000    0.54840   0.23040   0.66840   Biso      1.000     O          -0.620203           
         O13       1.0000    0.74010   0.22200   0.60514   Biso      1.000     O          -0.5633739999999999           
         O14       1.0000    0.78620   0.86820   0.22192   Biso      1.000     O          -0.591771           
         O15       1.0000    0.50230   0.91930   0.70117   Biso      1.000     O          -0.643736           
         O16       1.0000    0.20700   0.68170   0.18077   Biso      1.000     O          -0.5366890000000001           
         O17       1.0000    0.99230   0.69910   0.15056   Biso      1.000     O          -0.576207           
         O18       1.0000    0.10580   0.36510   0.30462   Biso      1.000     O          -0.602934           
         O19       1.0000    0.45660   0.83010   0.85595   Biso      1.000     O          -0.563884           
         O20       1.0000    0.32100   0.96110   0.29672   Biso      1.000     O          -0.541812           
         O21       1.0000    0.00770   0.30090   0.84944   Biso      1.000     O          -0.576209           
         O22       1.0000    0.21380   0.13180   0.77808   Biso      1.000     O          -0.591767           
         O23       1.0000    0.13050   0.01730   0.85144   Biso      1.000     O          -0.567315           
         O24       1.0000    0.29190   0.35300   0.80861   Biso      1.000     O          -0.6019260000000001           
         O25       1.0000    0.49420   0.31350   0.84647   Biso      1.000     O          -0.539713           
         O26       1.0000    0.33930   0.48200   0.15476   Biso      1.000     O          -0.564187           
         O27       1.0000    0.41650   0.36540   0.21916   Biso      1.000     O          -0.579267           
         O28       1.0000    0.05510   0.16470   0.14853   Biso      1.000     O          -0.558705           
         O29       1.0000    0.25900   0.15750   0.20498   Biso      1.000     O          -0.585234           
         O30       1.0000    0.07270   0.73420   0.66590   Biso      1.000     O          -0.607614           
         O31       1.0000    0.89420   0.63490   0.69538   Biso      1.000     O          -0.602931           
         O32       1.0000    0.15080   0.51800   0.70976   Biso      1.000     O          -0.579083           
         O33       1.0000    0.03820   0.35970   0.66877   Biso      1.000     O          -0.5916060000000001           
         O34       1.0000    0.45160   0.76960   0.33160   Biso      1.000     O          -0.6202   
         O35       1.0000    0.25990   0.77800   0.39486   Biso      1.000     O          -0.563368           
         O36       1.0000    0.76530   0.19490   0.17119   Biso      1.000     O          -0.55467  
         O37       1.0000    0.49770   0.08070   0.29883   Biso      1.000     O          -0.643737           
         O38       1.0000    0.79300   0.31830   0.81923   Biso      1.000     O          -0.536686           
         O39       1.0000    0.23470   0.80510   0.82881   Biso      1.000     O          -0.554672           
         O40       1.0000    0.54340   0.16990   0.14405   Biso      1.000     O          -0.56389 