
##########################################################################
#               Crystallographic Information Format file
#               Produced by PyCifRW module
#
#  This is a CIF file.  CIF has been adopted by the International
#  Union of Crystallography as the standard for data archiving and
#  transmission.
#
#  For information on this file format, follow the CIF links at
#  http://www.iucr.org
##########################################################################

data_image0

_cell_length_a                          9.263
_cell_length_b                          10.3537
_cell_length_c                          13.0201
_cell_angle_alpha                       80.8441
_cell_angle_beta                        69.1627
_cell_angle_gamma                       63.4276
_symmetry_space_group_name_H-M          'P 1'
_symmetry_int_tables_number             1
loop_
  _symmetry_equiv_pos_as_xyz
         'x, y, z' 
loop_
  _atom_site_label
  _atom_site_occupancy
  _atom_site_fract_x
  _atom_site_fract_y
  _atom_site_fract_z
  _atom_site_thermal_displace_type
  _atom_site_B_iso_or_equiv
  _atom_site_type_symbol
  _atom_site_charge
         C1        1.0000    0.13950   0.97780   0.49480   Biso      1.000     C          -0.017912           
         C2        1.0000    0.51300   0.00580   0.60200   Biso      1.000     C          -0.146349           
         C3        1.0000    0.97880   0.83880   0.23800   Biso      1.000     C          0.13696   
         C4        1.0000    0.80090   0.91120   0.15240   Biso      1.000     C          -0.058188           
         C5        1.0000    0.78150   0.02560   0.20220   Biso      1.000     C          -0.060131           
         C6        1.0000    0.38860   0.90700   0.38460   Biso      1.000     C          0.137318  
         C7        1.0000    0.12080   0.99420   0.39800   Biso      1.000     C          -0.145153           
         C8        1.0000    0.05560   0.16120   0.76200   Biso      1.000     C          0.140861  
         C9        1.0000    0.86450   0.08880   0.84760   Biso      1.000     C          -0.059641999999999994         
         C10       1.0000    0.00930   0.97440   0.79780   Biso      1.000     C          -0.059279           
         C11       1.0000    0.04560   0.59300   0.88460   Biso      1.000     C          0.122492  
         C12       1.0000    0.86730   0.52220   0.99480   Biso      1.000     C          -0.034873           
         C13       1.0000    0.86500   0.50580   0.89800   Biso      1.000     C          -0.12205  
         C14       1.0000    0.96680   0.33880   0.26200   Biso      1.000     C          0.137241  
         C15       1.0000    0.70330   0.41120   0.34760   Biso      1.000     C          -0.06072999999999999          
         C16       1.0000    0.73370   0.52560   0.29780   Biso      1.000     C          -0.058642999999999994         
         C17       1.0000    0.52320   0.40700   0.11540   Biso      1.000     C          0.124177  
         C18       1.0000    0.38430   0.47780   0.00520   Biso      1.000     C          -0.032285           
         C19       1.0000    0.26880   0.49420   0.10200   Biso      1.000     C          -0.123747           
         C20       1.0000    0.56760   0.66120   0.73800   Biso      1.000     C          0.137183  
         C21       1.0000    0.46210   0.58880   0.65240   Biso      1.000     C          -0.061742           
         C22       1.0000    0.55710   0.47440   0.70220   Biso      1.000     C          -0.057424           
         C23       1.0000    0.61210   0.02220   0.50520   Biso      1.000     C          -0.018375           
         C24       1.0000    0.68020   0.09300   0.61540   Biso      1.000     C          0.138418  
         Co1       1.0000    0.89665   0.08794   0.36996   Biso      1.000     Co          0.6431479999999999  
         Co2       1.0000    0.35455   0.91206   0.63004   Biso      1.000     Co          0.643509  
         Co3       1.0000    0.01661   0.58794   0.13004   Biso      1.000     Co          0.640972  
         Co4       1.0000    0.73459   0.41206   0.86996   Biso      1.000     Co          0.64132   
         H1        1.0000    0.40120   0.58540   0.60740   Biso      1.000     H          0.11724000000000001           
         H2        1.0000    0.57360   0.37660   0.69880   Biso      1.000     H          0.10468399999999999           
         H3        1.0000    0.60510   0.99960   0.43900   Biso      1.000     H          0.08140599999999999           
         H4        1.0000    0.06690   0.77620   0.26860   Biso      1.000     H          0.091004  
         H5        1.0000    0.73660   0.91460   0.10740   Biso      1.000     H          0.116326  
         H6        1.0000    0.70020   0.12340   0.19880   Biso      1.000     H          0.10579300000000001           
         H7        1.0000    0.51010   0.87420   0.35460   Biso      1.000     H          0.085516  
         H8        1.0000    0.04370   0.00040   0.56100   Biso      1.000     H          0.080862  
         H9        1.0000    0.11170   0.22380   0.73140   Biso      1.000     H          0.088712  
         H10       1.0000    0.73890   0.12580   0.64540   Biso      1.000     H          0.085604  
         H11       1.0000    0.02240   0.87660   0.80120   Biso      1.000     H          0.105848  
         H12       1.0000    0.75860   0.08540   0.89260   Biso      1.000     H          0.11748199999999999           
         H13       1.0000    0.59310   0.72380   0.76860   Biso      1.000     H          0.090541  
         H14       1.0000    0.61470   0.37420   0.14540   Biso      1.000     H          0.086278  
         H15       1.0000    0.64900   0.62340   0.30120   Biso      1.000     H          0.10559400000000001           
         H16       1.0000    0.35470   0.50040   0.93900   Biso      1.000     H          0.081011  
         H17       1.0000    0.08550   0.27620   0.23140   Biso      1.000     H          0.090255  
         H18       1.0000    0.79410   0.49960   0.06100   Biso      1.000     H          0.08240700000000001           
         H19       1.0000    0.13430   0.62580   0.85460   Biso      1.000     H          0.086384  
         H20       1.0000    0.59400   0.41460   0.39260   Biso      1.000     H          0.116754  
         N1        1.0000    0.35680   0.44380   0.17660   Biso      1.000     N          -0.30194899999999997          
         N2        1.0000    0.97440   0.56920   0.99300   Biso      1.000     N          -0.259245           
         N3        1.0000    0.53660   0.43080   0.00700   Biso      1.000     N          -0.260602           
         N4        1.0000    0.85200   0.29140   0.32640   Biso      1.000     N          -0.27672800000000003          
         N5        1.0000    0.90170   0.48060   0.24040   Biso      1.000     N          -0.26714  
         N6        1.0000    0.97720   0.55620   0.82340   Biso      1.000     N          -0.302811           
         N7        1.0000    0.89340   0.20860   0.82640   Biso      1.000     N          -0.27555999999999997          
         N8        1.0000    0.89210   0.98060   0.25960   Biso      1.000     N          -0.265768           
         N9        1.0000    0.28340   0.94380   0.32340   Biso      1.000     N          -0.315865           
         N10       1.0000    0.29360   0.93080   0.49300   Biso      1.000     N          -0.260304           
         N11       1.0000    0.92840   0.79140   0.17360   Biso      1.000     N          -0.274054           
         N12       1.0000    0.55060   0.05620   0.67660   Biso      1.000     N          -0.314715           
         N13       1.0000    0.71740   0.06920   0.50700   Biso      1.000     N          -0.26124899999999995          
         N14       1.0000    0.62270   0.51940   0.75960   Biso      1.000     N          -0.266523           
         N15       1.0000    0.13230   0.01940   0.74040   Biso      1.000     N          -0.267242           
         N16       1.0000    0.46980   0.70860   0.67360   Biso      1.000     N          -0.277021 