
##########################################################################
#               Crystallographic Information Format file
#               Produced by PyCifRW module
#
#  This is a CIF file.  CIF has been adopted by the International
#  Union of Crystallography as the standard for data archiving and
#  transmission.
#
#  For information on this file format, follow the CIF links at
#  http://www.iucr.org
##########################################################################

data_image0

_cell_length_a                          10.717
_cell_length_b                          23.114
_cell_length_c                          10.07
_cell_angle_alpha                       90
_cell_angle_beta                        104.78
_cell_angle_gamma                       90
_symmetry_space_group_name_H-M          'P 1'
_symmetry_int_tables_number             1
loop_
  _symmetry_equiv_pos_as_xyz
         'x, y, z' 
loop_
  _atom_site_label
  _atom_site_occupancy
  _atom_site_fract_x
  _atom_site_fract_y
  _atom_site_fract_z
  _atom_site_thermal_displace_type
  _atom_site_B_iso_or_equiv
  _atom_site_type_symbol
  _atom_site_charge
         C1        1.0000    0.57446   0.72615   0.40520   Biso      1.000     C          0.652265  
         C2        1.0000    0.92554   0.77385   0.59480   Biso      1.000     C          0.652265  
         C3        1.0000    0.07446   0.22615   0.40520   Biso      1.000     C          0.652265  
         C4        1.0000    0.01144   0.18382   0.47960   Biso      1.000     C          -0.044681           
         C5        1.0000    0.51144   0.68382   0.47960   Biso      1.000     C          -0.044681           
         C6        1.0000    0.03437   0.12522   0.47050   Biso      1.000     C          -0.148472           
         C7        1.0000    0.50997   0.47529   0.48820   Biso      1.000     C          -0.115824           
         C8        1.0000    0.73284   0.31539   0.30850   Biso      1.000     C          0.637269  
         C9        1.0000    0.36087   0.66327   0.61449   Biso      1.000     C          -0.014169           
         C10       1.0000    0.61845   0.39562   0.39720   Biso      1.000     C          -0.148274           
         C11       1.0000    0.46927   0.58492   0.53100   Biso      1.000     C          0.152313  
         C12       1.0000    0.57432   0.29741   0.44740   Biso      1.000     C          -0.084999           
         C13       1.0000    0.63913   0.33673   0.38551   Biso      1.000     C          -0.014169           
         C14       1.0000    0.53073   0.41508   0.46900   Biso      1.000     C          0.15233   
         C15       1.0000    0.46563   0.37478   0.52950   Biso      1.000     C          -0.14846900000000002          
         C16       1.0000    0.48856   0.31618   0.52040   Biso      1.000     C          -0.044681           
         C17       1.0000    0.98856   0.81618   0.52040   Biso      1.000     C          -0.044682           
         C18       1.0000    0.63913   0.66327   0.88551   Biso      1.000     C          -0.014169999999999999         
         C19       1.0000    0.96563   0.87478   0.52950   Biso      1.000     C          -0.14847  
         C20       1.0000    0.03073   0.91508   0.46900   Biso      1.000     C          0.152331  
         C21       1.0000    0.53073   0.58492   0.96900   Biso      1.000     C          0.152329  
         C22       1.0000    0.46563   0.62522   0.02950   Biso      1.000     C          -0.14846900000000002          
         C23       1.0000    0.48856   0.68382   0.02040   Biso      1.000     C          -0.044682           
         C24       1.0000    0.42554   0.72615   0.09480   Biso      1.000     C          0.652265  
         C25       1.0000    0.61845   0.60438   0.89720   Biso      1.000     C          -0.14827200000000001          
         C26       1.0000    0.38155   0.60438   0.60280   Biso      1.000     C          -0.148274           
         C27       1.0000    0.26716   0.68461   0.69150   Biso      1.000     C          0.637269  
         C28       1.0000    0.49003   0.52471   0.51180   Biso      1.000     C          -0.11569000000000002          
         C29       1.0000    0.00997   0.97529   0.48820   Biso      1.000     C          -0.115824           
         C30       1.0000    0.23284   0.81539   0.30850   Biso      1.000     C          0.637269  
         C31       1.0000    0.73284   0.68461   0.80850   Biso      1.000     C          0.637269  
         C32       1.0000    0.11845   0.89562   0.39720   Biso      1.000     C          -0.148274           
         C33       1.0000    0.50997   0.52471   0.98820   Biso      1.000     C          -0.115824           
         C34       1.0000    0.07432   0.79741   0.44740   Biso      1.000     C          -0.084998           
         C35       1.0000    0.13913   0.83673   0.38551   Biso      1.000     C          -0.014169           
         C36       1.0000    0.42568   0.70259   0.55260   Biso      1.000     C          -0.084997           
         C37       1.0000    0.92554   0.22615   0.09480   Biso      1.000     C          0.652265  
         C38       1.0000    0.42554   0.27385   0.59480   Biso      1.000     C          0.652265  
         C39       1.0000    0.86087   0.16327   0.61449   Biso      1.000     C          -0.014169           
         C40       1.0000    0.76716   0.18461   0.69150   Biso      1.000     C          0.637269  
         C41       1.0000    0.49003   0.47529   0.01180   Biso      1.000     C          -0.11569000000000002          
         C42       1.0000    0.26716   0.31539   0.19150   Biso      1.000     C          0.637269  
         C43       1.0000    0.11845   0.10438   0.89720   Biso      1.000     C          -0.148274           
         C44       1.0000    0.38155   0.39562   0.10280   Biso      1.000     C          -0.148275           
         C45       1.0000    0.42568   0.29741   0.05260   Biso      1.000     C          -0.084998           
         C46       1.0000    0.36087   0.33673   0.11449   Biso      1.000     C          -0.014168           
         C47       1.0000    0.46927   0.41508   0.03100   Biso      1.000     C          0.152314  
         C48       1.0000    0.23284   0.18461   0.80850   Biso      1.000     C          0.637269  
         C49       1.0000    0.53437   0.37478   0.97050   Biso      1.000     C          -0.14847  
         C50       1.0000    0.51144   0.31618   0.97960   Biso      1.000     C          -0.044680000000000004         
         C51       1.0000    0.57446   0.27385   0.90520   Biso      1.000     C          0.652265  
         C52       1.0000    0.99003   0.02471   0.51180   Biso      1.000     C          -0.115691           
         C53       1.0000    0.00997   0.02471   0.98820   Biso      1.000     C          -0.115824           
         C54       1.0000    0.53437   0.62522   0.47050   Biso      1.000     C          -0.14847  
         C55       1.0000    0.96927   0.08492   0.53100   Biso      1.000     C          0.152315  
         C56       1.0000    0.07432   0.20259   0.94740   Biso      1.000     C          -0.084999           
         C57       1.0000    0.57432   0.70259   0.94740   Biso      1.000     C          -0.084998           
         C58       1.0000    0.88155   0.89562   0.10280   Biso      1.000     C          -0.148276           
         C59       1.0000    0.76716   0.81539   0.19150   Biso      1.000     C          0.637269  
         C60       1.0000    0.98856   0.18382   0.02040   Biso      1.000     C          -0.044681           
         C61       1.0000    0.96563   0.12522   0.02950   Biso      1.000     C          -0.14847  
         C62       1.0000    0.88155   0.10438   0.60280   Biso      1.000     C          -0.148274           
         C63       1.0000    0.92568   0.79741   0.05260   Biso      1.000     C          -0.084998           
         C64       1.0000    0.92568   0.20259   0.55260   Biso      1.000     C          -0.084997           
         C65       1.0000    0.86087   0.83673   0.11449   Biso      1.000     C          -0.014168           
         C66       1.0000    0.96927   0.91508   0.03100   Biso      1.000     C          0.152314  
         C67       1.0000    0.03073   0.08492   0.96900   Biso      1.000     C          0.152331  
         C68       1.0000    0.03437   0.87478   0.97050   Biso      1.000     C          -0.14847  
         C69       1.0000    0.01144   0.81618   0.97960   Biso      1.000     C          -0.044680000000000004         
         C70       1.0000    0.07446   0.77385   0.90520   Biso      1.000     C          0.652265  
         C71       1.0000    0.13913   0.16327   0.88551   Biso      1.000     C          -0.014169           
         C72       1.0000    0.99003   0.97529   0.01180   Biso      1.000     C          -0.11569000000000002          
         H1        1.0000    0.58850   0.74200   0.93990   Biso      1.000     H          0.130546  
         H2        1.0000    0.68980   0.73160   0.31340   Biso      1.000     H          0.415013  
         H3        1.0000    0.81020   0.23160   0.18660   Biso      1.000     H          0.415013  
         H4        1.0000    0.66300   0.57780   0.85720   Biso      1.000     H          0.125342  
         H5        1.0000    0.90630   0.11260   0.07650   Biso      1.000     H          0.128135  
         H6        1.0000    0.16300   0.07780   0.85720   Biso      1.000     H          0.125342  
         H7        1.0000    0.59370   0.61260   0.42350   Biso      1.000     H          0.128134  
         H8        1.0000    0.08850   0.24200   0.93990   Biso      1.000     H          0.130546  
         H9        1.0000    0.31020   0.73160   0.18660   Biso      1.000     H          0.415013  
         H10       1.0000    0.41150   0.74200   0.56010   Biso      1.000     H          0.130546  
         H11       1.0000    0.68980   0.26840   0.81340   Biso      1.000     H          0.415013  
         H12       1.0000    0.59370   0.38740   0.92350   Biso      1.000     H          0.128134  
         H13       1.0000    0.41150   0.25800   0.06010   Biso      1.000     H          0.130546  
         H14       1.0000    0.33700   0.42220   0.14280   Biso      1.000     H          0.125341  
         H15       1.0000    0.18980   0.76840   0.81340   Biso      1.000     H          0.415013  
         H16       1.0000    0.83700   0.07780   0.64280   Biso      1.000     H          0.125341  
         H17       1.0000    0.91150   0.24200   0.56010   Biso      1.000     H          0.130546  
         H18       1.0000    0.09370   0.88740   0.92350   Biso      1.000     H          0.128134  
         H19       1.0000    0.40630   0.61260   0.07650   Biso      1.000     H          0.128135  
         H20       1.0000    0.83700   0.92220   0.14280   Biso      1.000     H          0.125341  
         H21       1.0000    0.91150   0.75800   0.06010   Biso      1.000     H          0.130546  
         H22       1.0000    0.09370   0.11260   0.42350   Biso      1.000     H          0.128134  
         H23       1.0000    0.40630   0.38740   0.57650   Biso      1.000     H          0.128135  
         H24       1.0000    0.58850   0.25800   0.43990   Biso      1.000     H          0.130546  
         H25       1.0000    0.66300   0.42220   0.35720   Biso      1.000     H          0.125342  
         H26       1.0000    0.18980   0.23160   0.31340   Biso      1.000     H          0.415013  
         H27       1.0000    0.90630   0.88740   0.57650   Biso      1.000     H          0.128135  
         H28       1.0000    0.08850   0.75800   0.43990   Biso      1.000     H          0.130546  
         H29       1.0000    0.16300   0.92220   0.35720   Biso      1.000     H          0.125342  
         H30       1.0000    0.33700   0.57780   0.64280   Biso      1.000     H          0.125341  
         H31       1.0000    0.31020   0.26840   0.68660   Biso      1.000     H          0.415013  
         H32       1.0000    0.81020   0.76840   0.68660   Biso      1.000     H          0.415013  
         Mg1       1.0000    0.50000   0.15786   0.75000   Biso      1.000     Mg          1.51249   
         Mg2       1.0000    0.00000   0.65786   0.75000   Biso      1.000     Mg          1.51249   
         Mg3       1.0000    0.00000   0.34214   0.25000   Biso      1.000     Mg          1.51249   
         Mg4       1.0000    0.50000   0.84214   0.25000   Biso      1.000     Mg          1.51249   
         O1        1.0000    0.28116   0.73793   0.72534   Biso      1.000     O          -0.577    
         O2        1.0000    0.53768   0.22272   0.89666   Biso      1.000     O          -0.651047           
         O3        1.0000    0.28116   0.26207   0.22534   Biso      1.000     O          -0.577    
         O4        1.0000    0.18511   0.34815   0.21614   Biso      1.000     O          -0.7317819999999999           
         O5        1.0000    0.16037   0.79437   0.85179   Biso      1.000     O          -0.48095600000000005          
         O6        1.0000    0.03768   0.72272   0.89666   Biso      1.000     O          -0.651047           
         O7        1.0000    0.78116   0.76207   0.22534   Biso      1.000     O          -0.577    
         O8        1.0000    0.68511   0.84815   0.21614   Biso      1.000     O          -0.7317819999999999           
         O9        1.0000    0.33963   0.29437   0.64821   Biso      1.000     O          -0.48095699999999997          
         O10       1.0000    0.46232   0.22272   0.60334   Biso      1.000     O          -0.651047           
         O11       1.0000    0.71884   0.26207   0.27466   Biso      1.000     O          -0.577    
         O12       1.0000    0.81489   0.34815   0.28386   Biso      1.000     O          -0.7317819999999999           
         O13       1.0000    0.83963   0.79437   0.64821   Biso      1.000     O          -0.48095699999999997          
         O14       1.0000    0.96232   0.72272   0.60334   Biso      1.000     O          -0.651047           
         O15       1.0000    0.21884   0.76207   0.27466   Biso      1.000     O          -0.577    
         O16       1.0000    0.68511   0.15185   0.71614   Biso      1.000     O          -0.7317819999999999           
         O17       1.0000    0.78116   0.23793   0.72534   Biso      1.000     O          -0.577    
         O18       1.0000    0.03768   0.27728   0.39666   Biso      1.000     O          -0.651047           
         O19       1.0000    0.31489   0.84815   0.28386   Biso      1.000     O          -0.7317819999999999           
         O20       1.0000    0.16037   0.20563   0.35179   Biso      1.000     O          -0.48095600000000005          
         O21       1.0000    0.33963   0.70563   0.14821   Biso      1.000     O          -0.48095600000000005          
         O22       1.0000    0.46232   0.77728   0.10334   Biso      1.000     O          -0.651047           
         O23       1.0000    0.71884   0.73793   0.77466   Biso      1.000     O          -0.577    
         O24       1.0000    0.81489   0.65185   0.78386   Biso      1.000     O          -0.7317819999999999           
         O25       1.0000    0.83963   0.20563   0.14821   Biso      1.000     O          -0.48095600000000005          
         O26       1.0000    0.96232   0.27728   0.10334   Biso      1.000     O          -0.651047           
         O27       1.0000    0.21884   0.23793   0.77466   Biso      1.000     O          -0.577    
         O28       1.0000    0.31489   0.15185   0.78386   Biso      1.000     O          -0.7317819999999999           
         O29       1.0000    0.66037   0.70563   0.35179   Biso      1.000     O          -0.48095600000000005          
         O30       1.0000    0.53768   0.77728   0.39666   Biso      1.000     O          -0.651047           
         O31       1.0000    0.18511   0.65185   0.71614   Biso      1.000     O          -0.7317819999999999           
         O32       1.0000    0.66037   0.29437   0.85179   Biso      1.000     O          -0.48095600000000005 