
##########################################################################
#               Crystallographic Information Format file
#               Produced by PyCifRW module
#
#  This is a CIF file.  CIF has been adopted by the International
#  Union of Crystallography as the standard for data archiving and
#  transmission.
#
#  For information on this file format, follow the CIF links at
#  http://www.iucr.org
##########################################################################

data_image0

_cell_length_a                          8.904
_cell_length_b                          9.2466
_cell_length_c                          9.2466
_cell_angle_alpha                       76.5959
_cell_angle_beta                        61.2183
_cell_angle_gamma                       61.2183
_symmetry_space_group_name_H-M          'P 1'
_symmetry_int_tables_number             1
loop_
  _symmetry_equiv_pos_as_xyz
         'x, y, z' 
loop_
  _atom_site_label
  _atom_site_occupancy
  _atom_site_fract_x
  _atom_site_fract_y
  _atom_site_fract_z
  _atom_site_thermal_displace_type
  _atom_site_B_iso_or_equiv
  _atom_site_type_symbol
  _atom_site_charge
         C1        1.0000    0.42150   0.52150   0.97450   Biso      1.000     C          0.49198   
         C2        1.0000    0.94300   0.47450   0.47850   Biso      1.000     C          0.491987  
         C3        1.0000    0.39600   0.02550   0.02150   Biso      1.000     C          0.491966  
         C4        1.0000    0.41750   0.97850   0.52550   Biso      1.000     C          0.491979  
         C5        1.0000    0.57850   0.47850   0.02550   Biso      1.000     C          0.49198   
         C6        1.0000    0.58250   0.02150   0.47450   Biso      1.000     C          0.491977  
         C7        1.0000    0.60400   0.97450   0.97850   Biso      1.000     C          0.491966  
         C8        1.0000    0.05700   0.52550   0.52150   Biso      1.000     C          0.491987  
         K1        1.0000    0.87500   0.25000   0.25000   Biso      1.000     K          0.897968  
         K2        1.0000    0.12500   0.75000   0.75000   Biso      1.000     K          0.897971  
         O1        1.0000    0.36750   0.94060   0.95640   Biso      1.000     O          -0.56342  
         O2        1.0000    0.27330   0.11800   0.14660   Biso      1.000     O          -0.583347           
         O3        1.0000    0.41990   0.85340   0.61800   Biso      1.000     O          -0.583356           
         O4        1.0000    0.32390   0.04360   0.44060   Biso      1.000     O          -0.563413           
         O5        1.0000    0.39130   0.64660   0.88200   Biso      1.000     O          -0.58336  
         O6        1.0000    0.30810   0.45640   0.05940   Biso      1.000     O          -0.563413           
         O7        1.0000    0.96210   0.61800   0.64660   Biso      1.000     O          -0.583357           
         O8        1.0000    0.23550   0.44060   0.45640   Biso      1.000     O          -0.563436           
         O9        1.0000    0.60870   0.35340   0.11800   Biso      1.000     O          -0.583359           
         O10       1.0000    0.63250   0.05940   0.04360   Biso      1.000     O          -0.56342  
         O11       1.0000    0.58010   0.14660   0.38200   Biso      1.000     O          -0.583355           
         O12       1.0000    0.67610   0.95640   0.55940   Biso      1.000     O          -0.563412           
         O13       1.0000    0.76450   0.55940   0.54360   Biso      1.000     O          -0.563433           
         O14       1.0000    0.69190   0.54360   0.94060   Biso      1.000     O          -0.563413           
         O15       1.0000    0.72670   0.88200   0.85340   Biso      1.000     O          -0.583347           
         O16       1.0000    0.03790   0.38200   0.35340   Biso      1.000     O          -0.583356           
         Y1        1.0000    0.37500   0.25000   0.25000   Biso      1.000     Y          1.721218  
         Y2        1.0000    0.62500   0.75000   0.75000   Biso      1.000     Y          1.721217 