
##########################################################################
#               Crystallographic Information Format file
#               Produced by PyCifRW module
#
#  This is a CIF file.  CIF has been adopted by the International
#  Union of Crystallography as the standard for data archiving and
#  transmission.
#
#  For information on this file format, follow the CIF links at
#  http://www.iucr.org
##########################################################################

data_image0

_cell_length_a                          10.861
_cell_length_b                          6.3914
_cell_length_c                          17.003
_cell_angle_alpha                       90
_cell_angle_beta                        105.828
_cell_angle_gamma                       90
_symmetry_space_group_name_H-M          'P 1'
_symmetry_int_tables_number             1
loop_
  _symmetry_equiv_pos_as_xyz
         'x, y, z' 
loop_
  _atom_site_label
  _atom_site_occupancy
  _atom_site_fract_x
  _atom_site_fract_y
  _atom_site_fract_z
  _atom_site_thermal_displace_type
  _atom_site_B_iso_or_equiv
  _atom_site_type_symbol
  _atom_site_charge
         C1        1.0000    0.22200   0.61960   0.76410   Biso      1.000     C          -0.032979           
         C2        1.0000    0.87650   0.41630   0.98010   Biso      1.000     C          -0.048050999999999996         
         C3        1.0000    0.82440   0.25580   0.80160   Biso      1.000     C          -0.18676900000000002          
         C4        1.0000    0.77800   0.11960   0.73590   Biso      1.000     C          -0.032979           
         C5        1.0000    0.74340   0.17010   0.46400   Biso      1.000     C          0.6222409999999999  
         C6        1.0000    0.87650   0.08370   0.48010   Biso      1.000     C          -0.04805  
         C7        1.0000    0.96360   0.15270   0.43800   Biso      1.000     C          0.05537   
         C8        1.0000    0.08640   0.06890   0.46080   Biso      1.000     C          -0.165049           
         C9        1.0000    0.92390   0.30230   0.36890   Biso      1.000     C          0.085958  
         C10       1.0000    0.98130   0.49360   0.36900   Biso      1.000     C          -0.12526099999999998          
         C11       1.0000    0.17560   0.75580   0.69840   Biso      1.000     C          -0.18676900000000002          
         C12       1.0000    0.83450   0.92440   0.73960   Biso      1.000     C          -0.11915999999999999          
         C13       1.0000    0.83450   0.57560   0.23960   Biso      1.000     C          -0.119164           
         C14       1.0000    0.93630   0.86900   0.80470   Biso      1.000     C          -0.070732           
         C15       1.0000    0.77800   0.38040   0.23590   Biso      1.000     C          -0.032976           
         C16       1.0000    0.82440   0.24420   0.30160   Biso      1.000     C          -0.18676800000000002          
         C17       1.0000    0.66940   0.31540   0.16470   Biso      1.000     C          0.6274109999999999  
         C18       1.0000    0.98130   0.00640   0.86900   Biso      1.000     C          -0.12526199999999998          
         C19       1.0000    0.92390   0.19770   0.86890   Biso      1.000     C          0.085963  
         C20       1.0000    0.08640   0.43110   0.96080   Biso      1.000     C          -0.165049           
         C21       1.0000    0.96360   0.34730   0.93800   Biso      1.000     C          0.05537   
         C22       1.0000    0.93630   0.63100   0.30470   Biso      1.000     C          -0.070728           
         C23       1.0000    0.33060   0.68460   0.83530   Biso      1.000     C          0.6274109999999999  
         C24       1.0000    0.66940   0.18460   0.66470   Biso      1.000     C          0.6274109999999999  
         C25       1.0000    0.91360   0.56890   0.03920   Biso      1.000     C          -0.165048           
         C26       1.0000    0.16550   0.42440   0.76040   Biso      1.000     C          -0.11915999999999999          
         C27       1.0000    0.06370   0.36900   0.69530   Biso      1.000     C          -0.070732           
         C28       1.0000    0.01870   0.50640   0.63100   Biso      1.000     C          -0.12526099999999998          
         C29       1.0000    0.07610   0.69770   0.63110   Biso      1.000     C          0.085963  
         C30       1.0000    0.25660   0.67010   0.03600   Biso      1.000     C          0.622242  
         C31       1.0000    0.12350   0.58370   0.01990   Biso      1.000     C          -0.048049           
         C32       1.0000    0.03640   0.65270   0.06200   Biso      1.000     C          0.05537   
         C33       1.0000    0.33060   0.81540   0.33530   Biso      1.000     C          0.6274109999999999  
         C34       1.0000    0.07610   0.80230   0.13110   Biso      1.000     C          0.085958  
         C35       1.0000    0.01870   0.99360   0.13100   Biso      1.000     C          -0.12525999999999998          
         C36       1.0000    0.74340   0.32990   0.96400   Biso      1.000     C          0.6222409999999999  
         C37       1.0000    0.91360   0.93110   0.53920   Biso      1.000     C          -0.165048           
         C38       1.0000    0.25660   0.82990   0.53600   Biso      1.000     C          0.6222409999999999  
         C39       1.0000    0.06370   0.13100   0.19530   Biso      1.000     C          -0.070729           
         C40       1.0000    0.03640   0.84730   0.56200   Biso      1.000     C          0.05537   
         C41       1.0000    0.16550   0.07560   0.26040   Biso      1.000     C          -0.119163           
         C42       1.0000    0.12350   0.91630   0.51990   Biso      1.000     C          -0.048048           
         C43       1.0000    0.22200   0.88040   0.26410   Biso      1.000     C          -0.032976           
         C44       1.0000    0.17560   0.74420   0.19840   Biso      1.000     C          -0.18676800000000002          
         H1        1.0000    0.02530   0.23870   0.69460   Biso      1.000     H          0.10311600000000001           
         H2        1.0000    0.14610   0.38200   0.93500   Biso      1.000     H          0.120148  
         H3        1.0000    0.05060   0.96910   0.91240   Biso      1.000     H          0.11430699999999999           
         H4        1.0000    0.78810   0.38800   0.80040   Biso      1.000     H          0.11907100000000001           
         H5        1.0000    0.80340   0.82910   0.69760   Biso      1.000     H          0.110851  
         H6        1.0000    0.97470   0.73870   0.80540   Biso      1.000     H          0.10311600000000001           
         H7        1.0000    0.85390   0.88200   0.56500   Biso      1.000     H          0.120148  
         H8        1.0000    0.94940   0.46910   0.58760   Biso      1.000     H          0.11430699999999999           
         H9        1.0000    0.64690   0.69060   0.54460   Biso      1.000     H          0.397468  
         H10       1.0000    0.78810   0.11200   0.30040   Biso      1.000     H          0.11907100000000001           
         H11       1.0000    0.14610   0.11800   0.43500   Biso      1.000     H          0.120148  
         H12       1.0000    0.19660   0.17090   0.30240   Biso      1.000     H          0.11085199999999999           
         H13       1.0000    0.35310   0.19060   0.95540   Biso      1.000     H          0.397469  
         H14       1.0000    0.02530   0.26130   0.19460   Biso      1.000     H          0.10311600000000001           
         H15       1.0000    0.94940   0.03090   0.08760   Biso      1.000     H          0.11430699999999999           
         H16       1.0000    0.21190   0.88800   0.69960   Biso      1.000     H          0.11907100000000001           
         H17       1.0000    0.19660   0.32910   0.80240   Biso      1.000     H          0.11085199999999999           
         H18       1.0000    0.80340   0.67090   0.19760   Biso      1.000     H          0.11085199999999999           
         H19       1.0000    0.97470   0.76130   0.30540   Biso      1.000     H          0.10311600000000001           
         H20       1.0000    0.05060   0.53090   0.41240   Biso      1.000     H          0.11430699999999999           
         H21       1.0000    0.21190   0.61200   0.19960   Biso      1.000     H          0.11907100000000001           
         H22       1.0000    0.35310   0.30940   0.45540   Biso      1.000     H          0.397468  
         H23       1.0000    0.85390   0.61800   0.06500   Biso      1.000     H          0.120149  
         H24       1.0000    0.64690   0.80940   0.04460   Biso      1.000     H          0.397469  
         O1        1.0000    0.44490   0.19060   0.98330   Biso      1.000     O          -0.862002           
         O2        1.0000    0.38250   0.96070   0.38080   Biso      1.000     O          -0.581063           
         O3        1.0000    0.35970   0.62790   0.34460   Biso      1.000     O          -0.5691430000000001           
         O4        1.0000    0.27600   0.86080   0.03460   Biso      1.000     O          -0.553344           
         O5        1.0000    0.34450   0.53230   0.04990   Biso      1.000     O          -0.608638           
         O6        1.0000    0.55510   0.80940   0.01670   Biso      1.000     O          -0.862002           
         O7        1.0000    0.65550   0.03230   0.45010   Biso      1.000     O          -0.608638           
         O8        1.0000    0.27600   0.63920   0.53460   Biso      1.000     O          -0.553344           
         O9        1.0000    0.38250   0.53930   0.88080   Biso      1.000     O          -0.581063           
         O10       1.0000    0.35970   0.87210   0.84460   Biso      1.000     O          -0.569142           
         O11       1.0000    0.34450   0.96770   0.54990   Biso      1.000     O          -0.608638           
         O12       1.0000    0.72400   0.36080   0.46540   Biso      1.000     O          -0.553343           
         O13       1.0000    0.64030   0.12790   0.15540   Biso      1.000     O          -0.5691430000000001           
         O14       1.0000    0.61750   0.46070   0.11920   Biso      1.000     O          -0.581063           
         O15       1.0000    0.44490   0.30940   0.48330   Biso      1.000     O          -0.862001           
         O16       1.0000    0.65550   0.46770   0.95010   Biso      1.000     O          -0.608638           
         O17       1.0000    0.72400   0.13920   0.96540   Biso      1.000     O          -0.553343           
         O18       1.0000    0.64030   0.37210   0.65540   Biso      1.000     O          -0.5691430000000001           
         O19       1.0000    0.61750   0.03930   0.61920   Biso      1.000     O          -0.581063           
         O20       1.0000    0.55510   0.69060   0.51670   Biso      1.000     O          -0.862001           
         Zn1       1.0000    0.46915   0.99808   0.08438   Biso      1.000     Zn          1.0409030000000001  
         Zn2       1.0000    0.53085   0.00192   0.91562   Biso      1.000     Zn          1.040897  
         Zn3       1.0000    0.50000   0.50000   0.00000   Biso      1.000     Zn          1.050681  
         Zn4       1.0000    0.53085   0.49808   0.41562   Biso      1.000     Zn          1.0408979999999999  
         Zn5       1.0000    0.46915   0.50192   0.58438   Biso      1.000     Zn          1.040901  
         Zn6       1.0000    0.50000   0.00000   0.50000   Biso      1.000     Zn          1.050681 