
##########################################################################
#               Crystallographic Information Format file
#               Produced by PyCifRW module
#
#  This is a CIF file.  CIF has been adopted by the International
#  Union of Crystallography as the standard for data archiving and
#  transmission.
#
#  For information on this file format, follow the CIF links at
#  http://www.iucr.org
##########################################################################

data_image0

_cell_length_a                          12.206
_cell_length_b                          17.833
_cell_length_c                          15.309
_cell_angle_alpha                       90
_cell_angle_beta                        111.229
_cell_angle_gamma                       90
_symmetry_space_group_name_H-M          'P 1'
_symmetry_int_tables_number             1
loop_
  _symmetry_equiv_pos_as_xyz
         'x, y, z' 
loop_
  _atom_site_label
  _atom_site_occupancy
  _atom_site_fract_x
  _atom_site_fract_y
  _atom_site_fract_z
  _atom_site_thermal_displace_type
  _atom_site_B_iso_or_equiv
  _atom_site_type_symbol
  _atom_site_charge
         C1        1.0000    0.82390   0.92050   0.12180   Biso      1.000     C          0.662589  
         C2        1.0000    0.51830   0.70780   0.27170   Biso      1.000     C          -0.028071           
         C3        1.0000    0.55110   0.63650   0.30730   Biso      1.000     C          0.050498  
         C4        1.0000    0.46880   0.58300   0.28210   Biso      1.000     C          -0.163914           
         C5        1.0000    0.35480   0.59660   0.22620   Biso      1.000     C          -0.081083           
         C6        1.0000    0.32320   0.66780   0.19350   Biso      1.000     C          0.062575  
         C7        1.0000    0.13980   0.64840   0.05650   Biso      1.000     C          -0.168395           
         C8        1.0000    0.20390   0.68870   0.13300   Biso      1.000     C          0.092331  
         C9        1.0000    0.15620   0.75320   0.15180   Biso      1.000     C          -0.130308           
         C10       1.0000    0.04950   0.77730   0.09550   Biso      1.000     C          -0.083238           
         C11       1.0000    0.98760   0.73660   0.01890   Biso      1.000     C          -0.09361  
         C12       1.0000    0.03190   0.67240   0.99930   Biso      1.000     C          -0.040553           
         C13       1.0000    0.96840   0.62970   0.91620   Biso      1.000     C          0.663648  
         C14       1.0000    0.40660   0.72070   0.21540   Biso      1.000     C          -0.174964           
         C15       1.0000    0.75310   0.90150   0.83254   Biso      1.000     C          -0.138554           
         C16       1.0000    0.88537   0.93340   0.98769   Biso      1.000     C          -0.119056           
         C17       1.0000    0.79940   0.91460   0.02356   Biso      1.000     C          -0.043362           
         C18       1.0000    0.69030   0.88922   0.96391   Biso      1.000     C          -0.138716           
         C19       1.0000    0.66710   0.88265   0.86841   Biso      1.000     C          0.107004  
         C20       1.0000    0.60480   0.72970   0.79630   Biso      1.000     C          0.624061  
         C21       1.0000    0.27230   0.96670   0.71120   Biso      1.000     C          0.664036  
         C22       1.0000    0.40660   0.77930   0.71540   Biso      1.000     C          -0.175003           
         C23       1.0000    0.51830   0.79220   0.77170   Biso      1.000     C          -0.028049           
         C24       1.0000    0.55110   0.86350   0.80730   Biso      1.000     C          0.050496  
         C25       1.0000    0.46880   0.91700   0.78210   Biso      1.000     C          -0.163913           
         C26       1.0000    0.35480   0.90340   0.72620   Biso      1.000     C          -0.081085           
         C27       1.0000    0.32320   0.83220   0.69350   Biso      1.000     C          0.062593  
         C28       1.0000    0.86220   0.92680   0.89219   Biso      1.000     C          -0.095173           
         C29       1.0000    0.27230   0.53330   0.21120   Biso      1.000     C          0.664036  
         C30       1.0000    0.60480   0.77030   0.29630   Biso      1.000     C          0.624062  
         C31       1.0000    0.66710   0.61735   0.36841   Biso      1.000     C          0.107003  
         C32       1.0000    0.24690   0.09850   0.16746   Biso      1.000     C          -0.138554           
         C33       1.0000    0.13780   0.07320   0.10781   Biso      1.000     C          -0.095173           
         C34       1.0000    0.11463   0.06660   0.01231   Biso      1.000     C          -0.119056           
         C35       1.0000    0.20060   0.08540   0.97644   Biso      1.000     C          -0.043361           
         C36       1.0000    0.30970   0.11078   0.03609   Biso      1.000     C          -0.138716           
         C37       1.0000    0.33290   0.11735   0.13159   Biso      1.000     C          0.107004  
         C38       1.0000    0.39520   0.27030   0.20370   Biso      1.000     C          0.624061  
         C39       1.0000    0.72770   0.03330   0.28880   Biso      1.000     C          0.664036  
         C40       1.0000    0.59340   0.22070   0.28460   Biso      1.000     C          -0.175003           
         C41       1.0000    0.48170   0.20780   0.22830   Biso      1.000     C          -0.028049           
         C42       1.0000    0.44890   0.13650   0.19270   Biso      1.000     C          0.050496  
         C43       1.0000    0.53120   0.08300   0.21790   Biso      1.000     C          -0.163913           
         C44       1.0000    0.64520   0.09660   0.27380   Biso      1.000     C          -0.081085           
         C45       1.0000    0.67680   0.16780   0.30650   Biso      1.000     C          0.062594  
         C46       1.0000    0.86020   0.14840   0.44350   Biso      1.000     C          -0.168395           
         C47       1.0000    0.79610   0.18870   0.36700   Biso      1.000     C          0.09233   
         C48       1.0000    0.84380   0.25320   0.34820   Biso      1.000     C          -0.130307           
         C49       1.0000    0.95050   0.27730   0.40450   Biso      1.000     C          -0.083238           
         C50       1.0000    0.01240   0.23660   0.48110   Biso      1.000     C          -0.09361  
         C51       1.0000    0.96810   0.17240   0.50070   Biso      1.000     C          -0.040553           
         C52       1.0000    0.03160   0.12970   0.58380   Biso      1.000     C          0.663648  
         C53       1.0000    0.82390   0.57950   0.62180   Biso      1.000     C          0.662589  
         C54       1.0000    0.75310   0.59850   0.33254   Biso      1.000     C          -0.138554           
         C55       1.0000    0.86220   0.57320   0.39219   Biso      1.000     C          -0.095173           
         C56       1.0000    0.88537   0.56660   0.48769   Biso      1.000     C          -0.119056           
         C57       1.0000    0.79940   0.58540   0.52356   Biso      1.000     C          -0.043362           
         C58       1.0000    0.69030   0.61078   0.46391   Biso      1.000     C          -0.138715           
         C59       1.0000    0.13980   0.85160   0.55650   Biso      1.000     C          -0.168393           
         C60       1.0000    0.20390   0.81130   0.63300   Biso      1.000     C          0.09233   
         C61       1.0000    0.17610   0.07950   0.87820   Biso      1.000     C          0.662589  
         C62       1.0000    0.15620   0.74680   0.65180   Biso      1.000     C          -0.130307           
         C63       1.0000    0.13780   0.42680   0.60781   Biso      1.000     C          -0.095175           
         C64       1.0000    0.11463   0.43340   0.51231   Biso      1.000     C          -0.119056           
         C65       1.0000    0.20060   0.41460   0.47644   Biso      1.000     C          -0.043361           
         C66       1.0000    0.30970   0.38922   0.53609   Biso      1.000     C          -0.138716           
         C67       1.0000    0.33290   0.38265   0.63159   Biso      1.000     C          0.107004  
         C68       1.0000    0.39520   0.22970   0.70370   Biso      1.000     C          0.624061  
         C69       1.0000    0.59340   0.27930   0.78460   Biso      1.000     C          -0.175003           
         C70       1.0000    0.48170   0.29220   0.72830   Biso      1.000     C          -0.028049           
         C71       1.0000    0.44890   0.36350   0.69270   Biso      1.000     C          0.050496  
         C72       1.0000    0.53120   0.41700   0.71790   Biso      1.000     C          -0.163913           
         C73       1.0000    0.64520   0.40340   0.77380   Biso      1.000     C          -0.081085           
         C74       1.0000    0.67680   0.33220   0.80650   Biso      1.000     C          0.062593  
         C75       1.0000    0.86020   0.35160   0.94350   Biso      1.000     C          -0.168395           
         C76       1.0000    0.79610   0.31130   0.86700   Biso      1.000     C          0.09233   
         C77       1.0000    0.84380   0.24680   0.84820   Biso      1.000     C          -0.130307           
         C78       1.0000    0.95050   0.22270   0.90450   Biso      1.000     C          -0.083238           
         C79       1.0000    0.01240   0.26340   0.98110   Biso      1.000     C          -0.09361  
         C80       1.0000    0.96810   0.32760   0.00070   Biso      1.000     C          -0.040553           
         C81       1.0000    0.03160   0.37030   0.08380   Biso      1.000     C          0.663649  
         C82       1.0000    0.24690   0.40150   0.66746   Biso      1.000     C          -0.138552           
         C83       1.0000    0.17610   0.42050   0.37820   Biso      1.000     C          0.662589  
         C84       1.0000    0.72770   0.46670   0.78880   Biso      1.000     C          0.664036  
         C85       1.0000    0.96840   0.87030   0.41620   Biso      1.000     C          0.66365   
         C86       1.0000    0.03190   0.82760   0.49930   Biso      1.000     C          -0.040573           
         C87       1.0000    0.04950   0.72270   0.59550   Biso      1.000     C          -0.08324  
         C88       1.0000    0.98760   0.76340   0.51890   Biso      1.000     C          -0.09359  
         H1        1.0000    0.38630   0.76850   0.19050   Biso      1.000     H          0.121337  
         H2        1.0000    0.63280   0.87660   0.98790   Biso      1.000     H          0.135364  
         H3        1.0000    0.19830   0.71900   0.70460   Biso      1.000     H          0.111418  
         H4        1.0000    0.61370   0.23150   0.80950   Biso      1.000     H          0.12134   
         H5        1.0000    0.08600   0.24690   0.02050   Biso      1.000     H          0.119366  
         H6        1.0000    0.63280   0.62340   0.48790   Biso      1.000     H          0.135364  
         H7        1.0000    0.91400   0.74690   0.47950   Biso      1.000     H          0.119364  
         H8        1.0000    0.82990   0.10400   0.45720   Biso      1.000     H          0.117934  
         H9        1.0000    0.95840   0.54960   0.52760   Biso      1.000     H          0.108002  
         H10       1.0000    0.50990   0.46560   0.69650   Biso      1.000     H          0.123387  
         H11       1.0000    0.91970   0.56060   0.36820   Biso      1.000     H          0.098582  
         H12       1.0000    0.98140   0.17850   0.89090   Biso      1.000     H          0.102001  
         H13       1.0000    0.73760   0.60290   0.26860   Biso      1.000     H          0.118586  
         H14       1.0000    0.26240   0.10290   0.23140   Biso      1.000     H          0.118586  
         H15       1.0000    0.49010   0.96560   0.80350   Biso      1.000     H          0.123387  
         H16       1.0000    0.80170   0.28100   0.29540   Biso      1.000     H          0.111418  
         H17       1.0000    0.80170   0.21900   0.79540   Biso      1.000     H          0.111418  
         H18       1.0000    0.98140   0.32150   0.39090   Biso      1.000     H          0.102001  
         H19       1.0000    0.08600   0.25310   0.52050   Biso      1.000     H          0.119366  
         H20       1.0000    0.50990   0.03440   0.19650   Biso      1.000     H          0.123387  
         H21       1.0000    0.82990   0.39600   0.95720   Biso      1.000     H          0.117934  
         H22       1.0000    0.38630   0.73150   0.69050   Biso      1.000     H          0.12134   
         H23       1.0000    0.95840   0.95040   0.02760   Biso      1.000     H          0.108002  
         H24       1.0000    0.08030   0.06060   0.13180   Biso      1.000     H          0.098582  
         H25       1.0000    0.04160   0.04960   0.97240   Biso      1.000     H          0.108002  
         H26       1.0000    0.36720   0.12340   0.01210   Biso      1.000     H          0.135364  
         H27       1.0000    0.61370   0.26850   0.30950   Biso      1.000     H          0.12134   
         H28       1.0000    0.49010   0.53440   0.30350   Biso      1.000     H          0.123387  
         H29       1.0000    0.73760   0.89710   0.76860   Biso      1.000     H          0.118586  
         H30       1.0000    0.91400   0.75310   0.97950   Biso      1.000     H          0.119366  
         H31       1.0000    0.26240   0.39710   0.73140   Biso      1.000     H          0.118586  
         H32       1.0000    0.36720   0.37660   0.51210   Biso      1.000     H          0.135364  
         H33       1.0000    0.17010   0.89600   0.54280   Biso      1.000     H          0.117933  
         H34       1.0000    0.19830   0.78100   0.20460   Biso      1.000     H          0.111418  
         H35       1.0000    0.08030   0.43940   0.63180   Biso      1.000     H          0.098583  
         H36       1.0000    0.91970   0.93940   0.86820   Biso      1.000     H          0.098582  
         H37       1.0000    0.17010   0.60400   0.04280   Biso      1.000     H          0.117934  
         H38       1.0000    0.04160   0.45040   0.47240   Biso      1.000     H          0.108002  
         H39       1.0000    0.01860   0.67850   0.60910   Biso      1.000     H          0.102002  
         H40       1.0000    0.01860   0.82150   0.10910   Biso      1.000     H          0.102001  
         O1        1.0000    0.24890   0.39480   0.34910   Biso      1.000     O          -0.539877           
         O2        1.0000    0.35000   0.21110   0.62400   Biso      1.000     O          -0.579841           
         O3        1.0000    0.37720   0.19910   0.76720   Biso      1.000     O          -0.569125           
         O4        1.0000    0.68800   0.52837   0.80120   Biso      1.000     O          -0.564115           
         O5        1.0000    0.99560   0.43290   0.09310   Biso      1.000     O          -0.597787           
         O6        1.0000    0.11930   0.34222   0.13930   Biso      1.000     O          -0.557033           
         O7        1.0000    0.08410   0.45110   0.33070   Biso      1.000     O          -0.609882           
         O8        1.0000    0.17830   0.54406   0.21800   Biso      1.000     O          -0.603835           
         O9        1.0000    0.24890   0.10520   0.84910   Biso      1.000     O          -0.539877           
         O10       1.0000    0.88070   0.65778   0.86070   Biso      1.000     O          -0.557033           
         O11       1.0000    0.00440   0.56710   0.90690   Biso      1.000     O          -0.597787           
         O12       1.0000    0.31200   0.47163   0.19880   Biso      1.000     O          -0.564115           
         O13       1.0000    0.62280   0.80090   0.23280   Biso      1.000     O          -0.569125           
         O14       1.0000    0.65000   0.78890   0.37600   Biso      1.000     O          -0.579841           
         O15       1.0000    0.75110   0.60520   0.65090   Biso      1.000     O          -0.539877           
         O16       1.0000    0.91590   0.54890   0.66930   Biso      1.000     O          -0.609882           
         O17       1.0000    0.17830   0.95594   0.71800   Biso      1.000     O          -0.603835           
         O18       1.0000    0.08410   0.04890   0.83070   Biso      1.000     O          -0.609882           
         O19       1.0000    0.00440   0.93290   0.40690   Biso      1.000     O          -0.597787           
         O20       1.0000    0.31200   0.02837   0.69880   Biso      1.000     O          -0.564115           
         O21       1.0000    0.88070   0.84222   0.36070   Biso      1.000     O          -0.557033           
         O22       1.0000    0.65000   0.71110   0.87600   Biso      1.000     O          -0.579841           
         O23       1.0000    0.35000   0.28890   0.12400   Biso      1.000     O          -0.579841           
         O24       1.0000    0.37720   0.30090   0.26720   Biso      1.000     O          -0.569125           
         O25       1.0000    0.68800   0.97163   0.30120   Biso      1.000     O          -0.564115           
         O26       1.0000    0.62280   0.69910   0.73280   Biso      1.000     O          -0.569125           
         O27       1.0000    0.11930   0.15778   0.63930   Biso      1.000     O          -0.557033           
         O28       1.0000    0.99560   0.06710   0.59310   Biso      1.000     O          -0.597787           
         O29       1.0000    0.82170   0.04406   0.28200   Biso      1.000     O          -0.603835           
         O30       1.0000    0.91590   0.95110   0.16930   Biso      1.000     O          -0.609882           
         O31       1.0000    0.75110   0.89480   0.15090   Biso      1.000     O          -0.539877           
         O32       1.0000    0.82170   0.45594   0.78200   Biso      1.000     O          -0.603835           
         Zn1       1.0000    0.03388   0.01338   0.70590   Biso      1.000     Zn          1.086848  
         Zn2       1.0000    0.73603   0.87688   0.27076   Biso      1.000     Zn          0.950923  
         Zn3       1.0000    0.96612   0.98662   0.29410   Biso      1.000     Zn          1.086849  
         Zn4       1.0000    0.96612   0.51338   0.79410   Biso      1.000     Zn          1.086848  
         Zn5       1.0000    0.03388   0.48662   0.20590   Biso      1.000     Zn          1.086848  
         Zn6       1.0000    0.73603   0.62312   0.77076   Biso      1.000     Zn          0.950923  
         Zn7       1.0000    0.26397   0.37688   0.22924   Biso      1.000     Zn          0.950923  
         Zn8       1.0000    0.26397   0.12312   0.72924   Biso      1.000     Zn          0.950923 