
##########################################################################
#               Crystallographic Information Format file
#               Produced by PyCifRW module
#
#  This is a CIF file.  CIF has been adopted by the International
#  Union of Crystallography as the standard for data archiving and
#  transmission.
#
#  For information on this file format, follow the CIF links at
#  http://www.iucr.org
##########################################################################

data_image0

_cell_length_a                          7.2765
_cell_length_b                          16.9791
_cell_length_c                          17.0668
_cell_angle_alpha                       90
_cell_angle_beta                        96.538
_cell_angle_gamma                       90
_symmetry_space_group_name_H-M          'P 1'
_symmetry_int_tables_number             1
loop_
  _symmetry_equiv_pos_as_xyz
         'x, y, z' 
loop_
  _atom_site_label
  _atom_site_occupancy
  _atom_site_fract_x
  _atom_site_fract_y
  _atom_site_fract_z
  _atom_site_thermal_displace_type
  _atom_site_B_iso_or_equiv
  _atom_site_type_symbol
  _atom_site_charge
         C1        1.0000    0.67940   0.14410   0.60600   Biso      1.000     C          -0.094726           
         C2        1.0000    0.15190   0.17608   0.96290   Biso      1.000     C          -0.183408           
         C3        1.0000    0.10580   0.13920   0.03060   Biso      1.000     C          0.002898  
         C4        1.0000    0.23520   0.14400   0.10580   Biso      1.000     C          0.577334  
         C5        1.0000    0.94020   0.09840   0.02790   Biso      1.000     C          -0.248435           
         C6        1.0000    0.03160   0.17430   0.89470   Biso      1.000     C          -0.0021739999999999997        
         C7        1.0000    0.07610   0.21800   0.82230   Biso      1.000     C          0.552709  
         C8        1.0000    0.81360   0.55670   0.90260   Biso      1.000     C          -0.197184           
         C9        1.0000    0.56150   0.52750   0.79430   Biso      1.000     C          -0.097224           
         C10       1.0000    0.13860   0.67430   0.96330   Biso      1.000     C          -0.129119           
         C11       1.0000    0.09170   0.47680   0.72090   Biso      1.000     C          -0.047724           
         C12       1.0000    0.28750   0.71220   0.94260   Biso      1.000     C          -0.042608999999999994         
         C13       1.0000    0.61560   0.52380   0.88210   Biso      1.000     C          -0.193892           
         C14       1.0000    0.82060   0.64410   0.89400   Biso      1.000     C          -0.094726           
         C15       1.0000    0.21870   0.53220   0.74500   Biso      1.000     C          -0.131243           
         C16       1.0000    0.08470   0.71390   0.84290   Biso      1.000     C          0.094063  
         C17       1.0000    0.86680   0.13330   0.89350   Biso      1.000     C          -0.24038099999999998          
         C18       1.0000    0.34160   0.41670   0.75610   Biso      1.000     C          0.108152  
         C19       1.0000    0.59050   0.01930   0.01460   Biso      1.000     C          -0.027235000000000002         
         C20       1.0000    0.15840   0.91670   0.74390   Biso      1.000     C          0.108152  
         C21       1.0000    0.63320   0.63330   0.60650   Biso      1.000     C          -0.24038299999999999          
         C22       1.0000    0.34810   0.67608   0.53710   Biso      1.000     C          -0.183408           
         C23       1.0000    0.39420   0.63920   0.46940   Biso      1.000     C          0.002898  
         C24       1.0000    0.26480   0.64400   0.39420   Biso      1.000     C          0.577334  
         C25       1.0000    0.55980   0.59840   0.47210   Biso      1.000     C          -0.248435           
         C26       1.0000    0.46840   0.67430   0.60530   Biso      1.000     C          -0.002172           
         C27       1.0000    0.42390   0.71800   0.67770   Biso      1.000     C          0.552709  
         C28       1.0000    0.68640   0.05670   0.59740   Biso      1.000     C          -0.197184           
         C29       1.0000    0.93850   0.02750   0.70570   Biso      1.000     C          -0.097224           
         C30       1.0000    0.36140   0.17430   0.53670   Biso      1.000     C          -0.129119           
         C31       1.0000    0.40830   0.97680   0.77910   Biso      1.000     C          -0.047724           
         C32       1.0000    0.21250   0.21220   0.55740   Biso      1.000     C          -0.042608999999999994         
         C33       1.0000    0.88440   0.02380   0.61790   Biso      1.000     C          -0.193892           
         C34       1.0000    0.28130   0.03220   0.75500   Biso      1.000     C          -0.131243           
         C35       1.0000    0.41530   0.21390   0.65710   Biso      1.000     C          0.094062  
         C36       1.0000    0.82200   0.09410   0.95920   Biso      1.000     C          0.27953   
         C37       1.0000    0.32200   0.40590   0.45920   Biso      1.000     C          0.279528  
         C38       1.0000    0.09050   0.48070   0.51460   Biso      1.000     C          -0.027235000000000002         
         C39       1.0000    0.36680   0.36670   0.39350   Biso      1.000     C          -0.240379           
         C40       1.0000    0.89420   0.86080   0.96940   Biso      1.000     C          0.002897  
         C41       1.0000    0.76480   0.85600   0.89420   Biso      1.000     C          0.577334  
         C42       1.0000    0.05980   0.90160   0.97210   Biso      1.000     C          -0.248435           
         C43       1.0000    0.96840   0.82570   0.10530   Biso      1.000     C          -0.0021780000000000002        
         C44       1.0000    0.92390   0.78200   0.17770   Biso      1.000     C          0.55271   
         C45       1.0000    0.18640   0.44330   0.09740   Biso      1.000     C          -0.197185           
         C46       1.0000    0.43850   0.47250   0.20570   Biso      1.000     C          -0.097224           
         C47       1.0000    0.86140   0.32570   0.03670   Biso      1.000     C          -0.129118           
         C48       1.0000    0.90830   0.52320   0.27910   Biso      1.000     C          -0.047724           
         C49       1.0000    0.71250   0.28780   0.05740   Biso      1.000     C          -0.042608999999999994         
         C50       1.0000    0.38440   0.47620   0.11790   Biso      1.000     C          -0.193892           
         C51       1.0000    0.17940   0.35590   0.10600   Biso      1.000     C          -0.094726           
         C52       1.0000    0.78130   0.46780   0.25500   Biso      1.000     C          -0.131243           
         C53       1.0000    0.91530   0.28610   0.15710   Biso      1.000     C          0.094062  
         C54       1.0000    0.65840   0.58330   0.24390   Biso      1.000     C          0.108153  
         C55       1.0000    0.84810   0.82392   0.03710   Biso      1.000     C          -0.183402           
         C56       1.0000    0.13320   0.86670   0.10650   Biso      1.000     C          -0.24038  
         C57       1.0000    0.40950   0.98070   0.98540   Biso      1.000     C          -0.027235000000000002         
         C58       1.0000    0.17800   0.90590   0.04080   Biso      1.000     C          0.279531  
         C59       1.0000    0.65190   0.32392   0.46290   Biso      1.000     C          -0.183408           
         C60       1.0000    0.60580   0.36080   0.53060   Biso      1.000     C          0.002898  
         C61       1.0000    0.73520   0.35600   0.60580   Biso      1.000     C          0.577334  
         C62       1.0000    0.44020   0.40160   0.52790   Biso      1.000     C          -0.24843400000000002          
         C63       1.0000    0.53160   0.32570   0.39470   Biso      1.000     C          -0.002172           
         C64       1.0000    0.57610   0.28200   0.32230   Biso      1.000     C          0.552709  
         C65       1.0000    0.31360   0.94330   0.40260   Biso      1.000     C          -0.197185           
         C66       1.0000    0.90950   0.51930   0.48540   Biso      1.000     C          -0.027235000000000002         
         C67       1.0000    0.06150   0.97250   0.29430   Biso      1.000     C          -0.097224           
         C68       1.0000    0.59170   0.02320   0.22090   Biso      1.000     C          -0.047724           
         C69       1.0000    0.78750   0.78780   0.44260   Biso      1.000     C          -0.042631           
         C70       1.0000    0.11560   0.97620   0.38210   Biso      1.000     C          -0.193892           
         C71       1.0000    0.32060   0.85590   0.39400   Biso      1.000     C          -0.094726           
         C72       1.0000    0.71870   0.96780   0.24500   Biso      1.000     C          -0.131243           
         C73       1.0000    0.58470   0.78610   0.34290   Biso      1.000     C          0.094063  
         C74       1.0000    0.84160   0.08330   0.25610   Biso      1.000     C          0.108152  
         C75       1.0000    0.63860   0.82570   0.46330   Biso      1.000     C          -0.12909600000000002          
         C76       1.0000    0.67800   0.59410   0.54080   Biso      1.000     C          0.279531  
         Co1       1.0000    0.43470   0.79870   0.80662   Biso      1.000     Co          0.795409  
         Co2       1.0000    0.06530   0.29870   0.69338   Biso      1.000     Co          0.795408  
         Co3       1.0000    0.56530   0.20130   0.19338   Biso      1.000     Co          0.795409  
         Co4       1.0000    0.93470   0.70130   0.30662   Biso      1.000     Co          0.795409  
         H1        1.0000    0.79890   0.41360   0.25490   Biso      1.000     H          0.132986  
         H2        1.0000    0.67770   0.98050   0.03830   Biso      1.000     H          0.081826  
         H3        1.0000    0.57230   0.05890   0.05390   Biso      1.000     H          0.084119  
         H4        1.0000    0.78500   0.13230   0.84740   Biso      1.000     H          0.13459200000000002           
         H5        1.0000    0.26450   0.20210   0.96370   Biso      1.000     H          0.12147899999999999           
         H6        1.0000    0.90870   0.07370   0.07310   Biso      1.000     H          0.12956900000000002           
         H7        1.0000    0.89510   0.53270   0.86830   Biso      1.000     H          0.103153  
         H8        1.0000    0.85830   0.54250   0.95650   Biso      1.000     H          0.10011   
         H9        1.0000    0.56060   0.58210   0.77760   Biso      1.000     H          0.111302  
         H10       1.0000    0.24460   0.34130   0.15660   Biso      1.000     H          0.11644700000000001           
         H11       1.0000    0.12710   0.65120   0.01190   Biso      1.000     H          0.133607  
         H12       1.0000    0.96940   0.48690   0.70140   Biso      1.000     H          0.11764100000000001           
         H13       1.0000    0.39690   0.72030   0.97540   Biso      1.000     H          0.12280999999999999           
         H14       1.0000    0.52910   0.55440   0.90890   Biso      1.000     H          0.10342799999999999           
         H15       1.0000    0.61080   0.46970   0.89990   Biso      1.000     H          0.108118  
         H16       1.0000    0.75610   0.66810   0.93470   Biso      1.000     H          0.11313599999999999           
         H17       1.0000    0.65410   0.50010   0.76800   Biso      1.000     H          0.122385  
         H18       1.0000    0.47540   0.22280   0.70730   Biso      1.000     H          0.11376700000000001           
         H19       1.0000    0.74460   0.15870   0.65660   Biso      1.000     H          0.11644700000000001           
         H20       1.0000    0.75540   0.65870   0.84340   Biso      1.000     H          0.11644700000000001           
         H21       1.0000    0.82230   0.48050   0.46170   Biso      1.000     H          0.081825  
         H22       1.0000    0.92770   0.55890   0.44610   Biso      1.000     H          0.084119  
         H23       1.0000    0.71500   0.63230   0.65260   Biso      1.000     H          0.13459200000000002           
         H24       1.0000    0.23550   0.70210   0.53630   Biso      1.000     H          0.12147899999999999           
         H25       1.0000    0.59130   0.57370   0.42690   Biso      1.000     H          0.12956900000000002           
         H26       1.0000    0.60490   0.03270   0.63170   Biso      1.000     H          0.103153  
         H27       1.0000    0.64170   0.04250   0.54350   Biso      1.000     H          0.10011   
         H28       1.0000    0.84590   0.00010   0.73200   Biso      1.000     H          0.122385  
         H29       1.0000    0.93940   0.08210   0.72240   Biso      1.000     H          0.111302  
         H30       1.0000    0.37290   0.15120   0.48810   Biso      1.000     H          0.133607  
         H31       1.0000    0.53060   0.98690   0.79860   Biso      1.000     H          0.11764100000000001           
         H32       1.0000    0.10310   0.22030   0.52460   Biso      1.000     H          0.12280999999999999           
         H33       1.0000    0.97090   0.05440   0.59110   Biso      1.000     H          0.10342799999999999           
         H34       1.0000    0.88920   0.96970   0.60010   Biso      1.000     H          0.108119  
         H35       1.0000    0.74390   0.16810   0.56530   Biso      1.000     H          0.11313599999999999           
         H36       1.0000    0.29890   0.08640   0.75490   Biso      1.000     H          0.132986  
         H37       1.0000    0.20110   0.58640   0.74510   Biso      1.000     H          0.132986  
         H38       1.0000    0.07010   0.87710   0.73500   Biso      1.000     H          0.10909100000000001           
         H39       1.0000    0.42990   0.37710   0.76500   Biso      1.000     H          0.10909   
         H40       1.0000    0.42770   0.94110   0.94610   Biso      1.000     H          0.084119  
         H41       1.0000    0.21500   0.86770   0.15260   Biso      1.000     H          0.13459200000000002           
         H42       1.0000    0.73550   0.79790   0.03630   Biso      1.000     H          0.12147899999999999           
         H43       1.0000    0.09130   0.92630   0.92690   Biso      1.000     H          0.12956900000000002           
         H44       1.0000    0.10490   0.46730   0.13170   Biso      1.000     H          0.103153  
         H45       1.0000    0.14170   0.45750   0.04350   Biso      1.000     H          0.100111  
         H46       1.0000    0.34590   0.49990   0.23200   Biso      1.000     H          0.122385  
         H47       1.0000    0.32230   0.01950   0.96170   Biso      1.000     H          0.081826  
         H48       1.0000    0.43940   0.41790   0.22240   Biso      1.000     H          0.111302  
         H49       1.0000    0.03060   0.51310   0.29860   Biso      1.000     H          0.11764100000000001           
         H50       1.0000    0.60310   0.27970   0.02460   Biso      1.000     H          0.12280999999999999           
         H51       1.0000    0.47090   0.44560   0.09110   Biso      1.000     H          0.10342799999999999           
         H52       1.0000    0.38920   0.53030   0.10010   Biso      1.000     H          0.108119  
         H53       1.0000    0.24390   0.33190   0.06530   Biso      1.000     H          0.11313599999999999           
         H54       1.0000    0.02460   0.72280   0.79270   Biso      1.000     H          0.113766  
         H55       1.0000    0.97540   0.27720   0.20730   Biso      1.000     H          0.11376700000000001           
         H56       1.0000    0.87290   0.34880   0.98810   Biso      1.000     H          0.133607  
         H57       1.0000    0.92990   0.12290   0.26500   Biso      1.000     H          0.10909   
         H58       1.0000    0.57010   0.62290   0.23500   Biso      1.000     H          0.10909   
         H59       1.0000    0.39510   0.96730   0.36830   Biso      1.000     H          0.103153  
         H60       1.0000    0.17770   0.51950   0.53830   Biso      1.000     H          0.081826  
         H61       1.0000    0.07230   0.44110   0.55390   Biso      1.000     H          0.084119  
         H62       1.0000    0.28500   0.36770   0.34740   Biso      1.000     H          0.13459200000000002           
         H63       1.0000    0.76450   0.29790   0.46370   Biso      1.000     H          0.12147899999999999           
         H64       1.0000    0.40870   0.42630   0.57310   Biso      1.000     H          0.12956900000000002           
         H65       1.0000    0.35830   0.95750   0.45650   Biso      1.000     H          0.100111  
         H66       1.0000    0.15410   0.99990   0.26800   Biso      1.000     H          0.122385  
         H67       1.0000    0.06060   0.91790   0.27760   Biso      1.000     H          0.111302  
         H68       1.0000    0.52460   0.77720   0.29270   Biso      1.000     H          0.113766  
         H69       1.0000    0.46940   0.01310   0.20140   Biso      1.000     H          0.11764100000000001           
         H70       1.0000    0.89690   0.77970   0.47540   Biso      1.000     H          0.12281099999999999           
         H71       1.0000    0.02910   0.94560   0.40890   Biso      1.000     H          0.10342799999999999           
         H72       1.0000    0.11080   0.03030   0.39990   Biso      1.000     H          0.108118  
         H73       1.0000    0.25610   0.83190   0.43470   Biso      1.000     H          0.11313699999999999           
         H74       1.0000    0.25540   0.84130   0.34340   Biso      1.000     H          0.11644700000000001           
         H75       1.0000    0.70110   0.91360   0.24510   Biso      1.000     H          0.132986  
         H76       1.0000    0.62710   0.84880   0.51190   Biso      1.000     H          0.133605  
         N1        1.0000    0.66990   0.09649   0.22971   Biso      1.000     N          -0.30127600000000004          
         N2        1.0000    0.99240   0.32411   0.10040   Biso      1.000     N          0.067486  
         N3        1.0000    0.62180   0.50752   0.23100   Biso      1.000     N          0.07039   
         N4        1.0000    0.83010   0.59649   0.27029   Biso      1.000     N          -0.301277           
         N5        1.0000    0.74590   0.26275   0.13420   Biso      1.000     N          -0.29702199999999995          
         N6        1.0000    0.50760   0.82411   0.39960   Biso      1.000     N          0.067484  
         N7        1.0000    0.87820   0.00752   0.26900   Biso      1.000     N          0.07039   
         N8        1.0000    0.75410   0.76275   0.36580   Biso      1.000     N          -0.29702  
         N9        1.0000    0.49240   0.17589   0.60040   Biso      1.000     N          0.067486  
         N10       1.0000    0.37820   0.49248   0.76900   Biso      1.000     N          0.07039   
         N11       1.0000    0.16990   0.40351   0.72971   Biso      1.000     N          -0.301277           
         N12       1.0000    0.25410   0.73725   0.86580   Biso      1.000     N          -0.29702199999999995          
         N13       1.0000    0.12180   0.99248   0.73100   Biso      1.000     N          0.07039   
         N14       1.0000    0.33010   0.90351   0.77029   Biso      1.000     N          -0.301277           
         N15       1.0000    0.24590   0.23725   0.63420   Biso      1.000     N          -0.29702199999999995          
         N16       1.0000    0.00760   0.67589   0.89960   Biso      1.000     N          0.067486  
         O1        1.0000    0.15750   0.44591   0.44883   Biso      1.000     O          -0.197666           
         O2        1.0000    0.76690   0.75602   0.18253   Biso      1.000     O          -0.559473           
         O3        1.0000    0.61580   0.81702   0.89872   Biso      1.000     O          -0.5707720000000001           
         O4        1.0000    0.34250   0.94591   0.05117   Biso      1.000     O          -0.197667           
         O5        1.0000    0.44400   0.27094   0.26686   Biso      1.000     O          -0.569601           
         O6        1.0000    0.69500   0.38680   0.66670   Biso      1.000     O          -0.5763729999999999           
         O7        1.0000    0.73310   0.25602   0.31747   Biso      1.000     O          -0.5594720000000001           
         O8        1.0000    0.88420   0.31702   0.60128   Biso      1.000     O          -0.570771           
         O9        1.0000    0.94400   0.22906   0.76686   Biso      1.000     O          -0.569601           
         O10       1.0000    0.80500   0.88680   0.83330   Biso      1.000     O          -0.5763739999999999           
         O11       1.0000    0.23310   0.24398   0.81747   Biso      1.000     O          -0.5594720000000001           
         O12       1.0000    0.38420   0.18298   0.10128   Biso      1.000     O          -0.5707720000000001           
         O13       1.0000    0.65750   0.05409   0.94883   Biso      1.000     O          -0.197667           
         O14       1.0000    0.55600   0.72906   0.73314   Biso      1.000     O          -0.569602           
         O15       1.0000    0.30500   0.61320   0.33330   Biso      1.000     O          -0.576375           
         O16       1.0000    0.26690   0.74398   0.68253   Biso      1.000     O          -0.559473           
         O17       1.0000    0.11580   0.68298   0.39872   Biso      1.000     O          -0.5707720000000001           
         O18       1.0000    0.84250   0.55409   0.55117   Biso      1.000     O          -0.197667           
         O19       1.0000    0.19500   0.11320   0.16670   Biso      1.000     O          -0.5763739999999999           
         O20       1.0000    0.05600   0.77094   0.23314   Biso      1.000     O          -0.569601 