
##########################################################################
#               Crystallographic Information Format file
#               Produced by PyCifRW module
#
#  This is a CIF file.  CIF has been adopted by the International
#  Union of Crystallography as the standard for data archiving and
#  transmission.
#
#  For information on this file format, follow the CIF links at
#  http://www.iucr.org
##########################################################################

data_image0

_cell_length_a                          6.8811
_cell_length_b                          18.351
_cell_length_c                          18.407
_cell_angle_alpha                       110.12
_cell_angle_beta                        90
_cell_angle_gamma                       90
_symmetry_space_group_name_H-M          'P 1'
_symmetry_int_tables_number             1
loop_
  _symmetry_equiv_pos_as_xyz
         'x, y, z' 
loop_
  _atom_site_label
  _atom_site_occupancy
  _atom_site_fract_x
  _atom_site_fract_y
  _atom_site_fract_z
  _atom_site_thermal_displace_type
  _atom_site_B_iso_or_equiv
  _atom_site_type_symbol
  _atom_site_charge
         C1        1.0000    0.14500   0.50920   0.82400   Biso      1.000     C          0.55848   
         C2        1.0000    0.69560   0.61680   0.38540   Biso      1.000     C          0.076427  
         C3        1.0000    0.76250   0.55190   0.32260   Biso      1.000     C          -0.13322799999999999          
         C4        1.0000    0.77410   0.55560   0.24910   Biso      1.000     C          0.136129  
         C5        1.0000    0.58000   0.74710   0.27090   Biso      1.000     C          0.654425  
         C6        1.0000    0.69560   0.61640   0.46660   Biso      1.000     C          0.572533  
         C7        1.0000    0.85500   0.49080   0.17600   Biso      1.000     C          0.558479  
         C8        1.0000    0.08740   0.88350   0.71090   Biso      1.000     C          0.164845  
         C9        1.0000    0.06600   0.90670   0.64850   Biso      1.000     C          -0.13660899999999998          
         C10       1.0000    0.12820   0.98220   0.65720   Biso      1.000     C          0.038502999999999996          
         C11       1.0000    0.19880   0.03230   0.73030   Biso      1.000     C          -0.142624           
         C12       1.0000    0.21630   0.00420   0.78890   Biso      1.000     C          0.150086  
         C13       1.0000    0.03350   0.80250   0.71050   Biso      1.000     C          0.62003   
         C14       1.0000    0.12710   0.00800   0.58920   Biso      1.000     C          0.68143   
         C15       1.0000    0.63670   0.68260   0.37090   Biso      1.000     C          -0.129637           
         C16       1.0000    0.29560   0.04980   0.86980   Biso      1.000     C          0.563013  
         C17       1.0000    0.13670   0.81740   0.12910   Biso      1.000     C          -0.129638           
         C18       1.0000    0.19560   0.88320   0.11460   Biso      1.000     C          0.076428  
         C19       1.0000    0.26250   0.94810   0.17740   Biso      1.000     C          -0.13322799999999999          
         C20       1.0000    0.27410   0.94440   0.25090   Biso      1.000     C          0.136129  
         C21       1.0000    0.08000   0.75290   0.22910   Biso      1.000     C          0.654425  
         C22       1.0000    0.19560   0.88360   0.03340   Biso      1.000     C          0.5725319999999999  
         C23       1.0000    0.35500   0.00920   0.32400   Biso      1.000     C          0.55848   
         C24       1.0000    0.41260   0.38350   0.21090   Biso      1.000     C          0.164845  
         C25       1.0000    0.43400   0.40670   0.14850   Biso      1.000     C          -0.13660999999999998          
         C26       1.0000    0.37180   0.48220   0.15720   Biso      1.000     C          0.038502999999999996          
         C27       1.0000    0.30120   0.53230   0.23030   Biso      1.000     C          -0.142625           
         C28       1.0000    0.28370   0.50420   0.28890   Biso      1.000     C          0.150086  
         C29       1.0000    0.46650   0.30250   0.21050   Biso      1.000     C          0.62003   
         C30       1.0000    0.14550   0.81930   0.20470   Biso      1.000     C          0.121501  
         C31       1.0000    0.64550   0.68070   0.29530   Biso      1.000     C          0.121501  
         C32       1.0000    0.79560   0.45020   0.63020   Biso      1.000     C          0.563013  
         C33       1.0000    0.62710   0.49200   0.91080   Biso      1.000     C          0.68143   
         C34       1.0000    0.64500   0.99080   0.67600   Biso      1.000     C          0.55848   
         C35       1.0000    0.80440   0.11640   0.96660   Biso      1.000     C          0.572533  
         C36       1.0000    0.92000   0.24710   0.77090   Biso      1.000     C          0.654425  
         C37       1.0000    0.72590   0.05560   0.74910   Biso      1.000     C          0.136125  
         C38       1.0000    0.73750   0.05190   0.82260   Biso      1.000     C          -0.133224           
         C39       1.0000    0.80440   0.11680   0.88540   Biso      1.000     C          0.076426  
         C40       1.0000    0.86330   0.18260   0.87090   Biso      1.000     C          -0.129637           
         C41       1.0000    0.85450   0.18070   0.79530   Biso      1.000     C          0.121501  
         C42       1.0000    0.70440   0.95020   0.13020   Biso      1.000     C          0.5630149999999999  
         C43       1.0000    0.87290   0.99200   0.41080   Biso      1.000     C          0.68143   
         C44       1.0000    0.96650   0.19750   0.28950   Biso      1.000     C          0.62003   
         C45       1.0000    0.78370   0.99580   0.21110   Biso      1.000     C          0.15007   
         C46       1.0000    0.80120   0.96770   0.26970   Biso      1.000     C          -0.14260699999999998          
         C47       1.0000    0.87180   0.01780   0.34280   Biso      1.000     C          0.038502  
         C48       1.0000    0.93400   0.09330   0.35150   Biso      1.000     C          -0.13661700000000002          
         C49       1.0000    0.91260   0.11650   0.28910   Biso      1.000     C          0.164852  
         C50       1.0000    0.30440   0.38360   0.53340   Biso      1.000     C          0.572533  
         C51       1.0000    0.42000   0.25290   0.72910   Biso      1.000     C          0.654425  
         C52       1.0000    0.22590   0.44440   0.75090   Biso      1.000     C          0.136125  
         C53       1.0000    0.23750   0.44810   0.67740   Biso      1.000     C          -0.133224           
         C54       1.0000    0.30440   0.38320   0.61460   Biso      1.000     C          0.076426  
         C55       1.0000    0.36330   0.31740   0.62910   Biso      1.000     C          -0.129637           
         C56       1.0000    0.35450   0.31930   0.70470   Biso      1.000     C          0.121501  
         C57       1.0000    0.58740   0.61650   0.78910   Biso      1.000     C          0.164845  
         C58       1.0000    0.56600   0.59330   0.85150   Biso      1.000     C          -0.13660999999999998          
         C59       1.0000    0.62820   0.51780   0.84280   Biso      1.000     C          0.038502999999999996          
         C60       1.0000    0.69880   0.46770   0.76970   Biso      1.000     C          -0.142625           
         C61       1.0000    0.71630   0.49580   0.71110   Biso      1.000     C          0.150086  
         C62       1.0000    0.53350   0.69750   0.78950   Biso      1.000     C          0.62003   
         C63       1.0000    0.37290   0.50800   0.08920   Biso      1.000     C          0.68143   
         C64       1.0000    0.20440   0.54980   0.36980   Biso      1.000     C          0.563013  
         Dy1       1.0000    0.77688   0.62647   0.62305   Biso      1.000     Dy          2.035876  
         Dy2       1.0000    0.74753   0.62460   0.10414   Biso      1.000     Dy          2.060479  
         Dy3       1.0000    0.27688   0.87353   0.87695   Biso      1.000     Dy          2.035875  
         Dy4       1.0000    0.24753   0.87540   0.39586   Biso      1.000     Dy          2.060479  
         Dy5       1.0000    0.22312   0.37353   0.37695   Biso      1.000     Dy          2.035875  
         Dy6       1.0000    0.25247   0.37540   0.89586   Biso      1.000     Dy          2.060479  
         Dy7       1.0000    0.72312   0.12647   0.12305   Biso      1.000     Dy          2.035875  
         Dy8       1.0000    0.75247   0.12460   0.60414   Biso      1.000     Dy          2.060479  
         H1        1.0000    0.90700   0.22640   0.91050   Biso      1.000     H          0.137462  
         H2        1.0000    0.51280   0.62590   0.89770   Biso      1.000     H          0.154279  
         H3        1.0000    0.73220   0.41660   0.76260   Biso      1.000     H          0.150131  
         H4        1.0000    0.79860   0.50660   0.33110   Biso      1.000     H          0.12972999999999998           
         H5        1.0000    0.59300   0.72640   0.41050   Biso      1.000     H          0.137462  
         H6        1.0000    0.23220   0.08340   0.73740   Biso      1.000     H          0.150131  
         H7        1.0000    0.09300   0.77360   0.08950   Biso      1.000     H          0.137462  
         H8        1.0000    0.29860   0.99340   0.16890   Biso      1.000     H          0.12972999999999998           
         H9        1.0000    0.48720   0.37410   0.10230   Biso      1.000     H          0.154279  
         H10       1.0000    0.70140   0.00660   0.83110   Biso      1.000     H          0.12972999999999998           
         H11       1.0000    0.26780   0.58340   0.23740   Biso      1.000     H          0.150131  
         H12       1.0000    0.40700   0.27360   0.58950   Biso      1.000     H          0.137462  
         H13       1.0000    0.20140   0.49340   0.66890   Biso      1.000     H          0.12972999999999998           
         H14       1.0000    0.98720   0.12590   0.39770   Biso      1.000     H          0.15428   
         H15       1.0000    0.76780   0.91660   0.26260   Biso      1.000     H          0.15012999999999999           
         H16       1.0000    0.01280   0.87410   0.60230   Biso      1.000     H          0.154279  
         N1        1.0000    0.28470   0.38190   0.76460   Biso      1.000     N          -0.410571           
         N2        1.0000    0.78470   0.11810   0.73540   Biso      1.000     N          -0.410571           
         N3        1.0000    0.83190   0.07020   0.22050   Biso      1.000     N          -0.468792           
         N4        1.0000    0.33190   0.42980   0.27950   Biso      1.000     N          -0.468793           
         N5        1.0000    0.21530   0.88190   0.26460   Biso      1.000     N          -0.41057200000000005          
         N6        1.0000    0.16810   0.92980   0.77950   Biso      1.000     N          -0.468793           
         N7        1.0000    0.71530   0.61810   0.23540   Biso      1.000     N          -0.41057200000000005          
         N8        1.0000    0.66810   0.57020   0.72050   Biso      1.000     N          -0.468793           
         O1        1.0000    0.39190   0.28600   0.26551   Biso      1.000     O          -0.669856           
         O2        1.0000    0.31530   0.45986   0.02526   Biso      1.000     O          -0.676667           
         O3        1.0000    0.42610   0.57826   0.10209   Biso      1.000     O          -0.668643           
         O4        1.0000    0.18120   0.62169   0.39103   Biso      1.000     O          -0.5332359999999999           
         O5        1.0000    0.16750   0.50935   0.41142   Biso      1.000     O          -0.6862060000000001           
         O6        1.0000    0.48970   0.19301   0.67682   Biso      1.000     O          -0.686692           
         O7        1.0000    0.39980   0.26260   0.79995   Biso      1.000     O          -0.619324           
         O8        1.0000    0.28510   0.44727   0.52370   Biso      1.000     O          -0.595635           
         O9        1.0000    0.31600   0.31870   0.47549   Biso      1.000     O          -0.6439779999999999           
         O10       1.0000    0.08570   0.57174   0.81980   Biso      1.000     O          -0.525455           
         O11       1.0000    0.07410   0.24093   0.34179   Biso      1.000     O          -0.604421           
         O12       1.0000    0.57410   0.25907   0.15821   Biso      1.000     O          -0.604421           
         O13       1.0000    0.81600   0.18130   0.02451   Biso      1.000     O          -0.6439779999999999           
         O14       1.0000    0.89190   0.21400   0.23449   Biso      1.000     O          -0.669856           
         O15       1.0000    0.81530   0.04014   0.47474   Biso      1.000     O          -0.676666           
         O16       1.0000    0.92610   0.92174   0.39791   Biso      1.000     O          -0.6686439999999999           
         O17       1.0000    0.68120   0.87831   0.10897   Biso      1.000     O          -0.5332359999999999           
         O18       1.0000    0.66750   0.99065   0.08858   Biso      1.000     O          -0.6862060000000001           
         O19       1.0000    0.98970   0.30699   0.82318   Biso      1.000     O          -0.686692           
         O20       1.0000    0.89980   0.23740   0.70005   Biso      1.000     O          -0.619324           
         O21       1.0000    0.78510   0.05273   0.97630   Biso      1.000     O          -0.595635           
         O22       1.0000    0.14550   0.49379   0.88534   Biso      1.000     O          -0.673782           
         O23       1.0000    0.35450   0.99379   0.38534   Biso      1.000     O          -0.673782           
         O24       1.0000    0.71490   0.55273   0.47630   Biso      1.000     O          -0.595635           
         O25       1.0000    0.18400   0.81870   0.97549   Biso      1.000     O          -0.6439779999999999           
         O26       1.0000    0.58570   0.92826   0.68020   Biso      1.000     O          -0.525455           
         O27       1.0000    0.42590   0.74093   0.84179   Biso      1.000     O          -0.604421           
         O28       1.0000    0.60810   0.71400   0.73449   Biso      1.000     O          -0.669856           
         O29       1.0000    0.68470   0.54014   0.97474   Biso      1.000     O          -0.676667           
         O30       1.0000    0.57390   0.42174   0.89791   Biso      1.000     O          -0.668643           
         O31       1.0000    0.81880   0.37831   0.60897   Biso      1.000     O          -0.5332359999999999           
         O32       1.0000    0.83250   0.49065   0.58858   Biso      1.000     O          -0.6862060000000001           
         O33       1.0000    0.51030   0.80699   0.32318   Biso      1.000     O          -0.686692           
         O34       1.0000    0.60020   0.73740   0.20005   Biso      1.000     O          -0.619324           
         O35       1.0000    0.68400   0.68130   0.52451   Biso      1.000     O          -0.6439779999999999           
         O36       1.0000    0.91430   0.42826   0.18020   Biso      1.000     O          -0.525455           
         O37       1.0000    0.85450   0.50621   0.11466   Biso      1.000     O          -0.673782           
         O38       1.0000    0.92590   0.75907   0.65821   Biso      1.000     O          -0.604421           
         O39       1.0000    0.10810   0.78600   0.76551   Biso      1.000     O          -0.669856           
         O40       1.0000    0.18470   0.95986   0.52526   Biso      1.000     O          -0.676667           
         O41       1.0000    0.07390   0.07826   0.60209   Biso      1.000     O          -0.668643           
         O42       1.0000    0.31880   0.12169   0.89103   Biso      1.000     O          -0.5332359999999999           
         O43       1.0000    0.33250   0.00935   0.91142   Biso      1.000     O          -0.6862060000000001           
         O44       1.0000    0.01030   0.69301   0.17682   Biso      1.000     O          -0.686692           
         O45       1.0000    0.10020   0.76260   0.29995   Biso      1.000     O          -0.619324           
         O46       1.0000    0.21490   0.94727   0.02370   Biso      1.000     O          -0.595635           
         O47       1.0000    0.41430   0.07174   0.31980   Biso      1.000     O          -0.525455           
         O48       1.0000    0.64550   0.00621   0.61466   Biso      1.000     O          -0.673782 