
##########################################################################
#               Crystallographic Information Format file
#               Produced by PyCifRW module
#
#  This is a CIF file.  CIF has been adopted by the International
#  Union of Crystallography as the standard for data archiving and
#  transmission.
#
#  For information on this file format, follow the CIF links at
#  http://www.iucr.org
##########################################################################

data_image0

_cell_length_a                          11.179
_cell_length_b                          11.179
_cell_length_c                          17.065
_cell_angle_alpha                       81.3643
_cell_angle_beta                        81.3643
_cell_angle_gamma                       84.9173
_symmetry_space_group_name_H-M          'P 1'
_symmetry_int_tables_number             1
loop_
  _symmetry_equiv_pos_as_xyz
         'x, y, z' 
loop_
  _atom_site_label
  _atom_site_occupancy
  _atom_site_fract_x
  _atom_site_fract_y
  _atom_site_fract_z
  _atom_site_thermal_displace_type
  _atom_site_B_iso_or_equiv
  _atom_site_type_symbol
  _atom_site_charge
         C1        1.0000    0.22740   0.29040   0.20910   Biso      1.000     C          -0.026166000000000002         
         C2        1.0000    0.73290   0.12050   0.60170   Biso      1.000     C          0.555692  
         C3        1.0000    0.77260   0.70960   0.79090   Biso      1.000     C          -0.026167000000000003         
         C4        1.0000    0.78400   0.69760   0.63330   Biso      1.000     C          0.596979  
         C5        1.0000    0.50490   0.59290   0.04710   Biso      1.000     C          -0.105316           
         C6        1.0000    0.82680   0.29420   0.49400   Biso      1.000     C          0.014343  
         C7        1.0000    0.81420   0.67100   0.71720   Biso      1.000     C          -0.011986           
         C8        1.0000    0.80380   0.22700   0.56910   Biso      1.000     C          -0.004951           
         C9        1.0000    0.59450   0.49490   0.93600   Biso      1.000     C          -0.112653           
         C10       1.0000    0.78440   0.29600   0.41450   Biso      1.000     C          0.5463600000000001  
         C11       1.0000    0.77300   0.19620   0.93090   Biso      1.000     C          -0.004949           
         C12       1.0000    0.32900   0.18580   0.78280   Biso      1.000     C          -0.011987000000000001         
         C13       1.0000    0.70580   0.17320   0.00600   Biso      1.000     C          0.014344999999999998          
         C14       1.0000    0.40710   0.49510   0.45290   Biso      1.000     C          -0.10530899999999999          
         C15       1.0000    0.30240   0.21600   0.86670   Biso      1.000     C          0.5969800000000001  
         C16       1.0000    0.29040   0.22740   0.70910   Biso      1.000     C          -0.026164999999999997         
         C17       1.0000    0.87950   0.26710   0.89830   Biso      1.000     C          0.5557    
         C18       1.0000    0.70400   0.21560   0.08550   Biso      1.000     C          0.5463640000000001  
         C19       1.0000    0.67700   0.80180   0.82190   Biso      1.000     C          0.5885090000000001  
         C20       1.0000    0.29600   0.78440   0.91450   Biso      1.000     C          0.546363  
         C21       1.0000    0.22700   0.80380   0.06910   Biso      1.000     C          -0.004947           
         C22       1.0000    0.32300   0.19820   0.17810   Biso      1.000     C          0.5885090000000001  
         C23       1.0000    0.40550   0.50510   0.06400   Biso      1.000     C          -0.11266099999999998          
         C24       1.0000    0.26710   0.87950   0.39830   Biso      1.000     C          0.555693  
         C25       1.0000    0.21600   0.30240   0.36670   Biso      1.000     C          0.5969800000000001  
         C26       1.0000    0.49510   0.40710   0.95290   Biso      1.000     C          -0.105324           
         C27       1.0000    0.17320   0.70580   0.50600   Biso      1.000     C          0.014341999999999999          
         C28       1.0000    0.18580   0.32900   0.28280   Biso      1.000     C          -0.011989           
         C29       1.0000    0.19620   0.77300   0.43090   Biso      1.000     C          -0.004949           
         C30       1.0000    0.21560   0.70400   0.58550   Biso      1.000     C          0.546358  
         C31       1.0000    0.80180   0.67700   0.32190   Biso      1.000     C          0.5885090000000001  
         C32       1.0000    0.49490   0.59450   0.43600   Biso      1.000     C          -0.11264300000000001          
         C33       1.0000    0.12050   0.73290   0.10170   Biso      1.000     C          0.5556989999999999  
         C34       1.0000    0.70960   0.77260   0.29090   Biso      1.000     C          -0.026169           
         C35       1.0000    0.69760   0.78400   0.13330   Biso      1.000     C          0.596979  
         C36       1.0000    0.59290   0.50490   0.54710   Biso      1.000     C          -0.105308           
         C37       1.0000    0.29420   0.82680   0.99400   Biso      1.000     C          0.014346000000000001          
         C38       1.0000    0.67100   0.81420   0.21720   Biso      1.000     C          -0.011989           
         C39       1.0000    0.50510   0.40550   0.56400   Biso      1.000     C          -0.11264300000000001          
         C40       1.0000    0.19820   0.32300   0.67810   Biso      1.000     C          0.5885090000000001  
         Cd1       1.0000    0.32233   0.22589   0.51800   Biso      1.000     Cd          0.905781  
         Cd2       1.0000    0.49272   0.97826   0.88006   Biso      1.000     Cd          0.8242209999999999  
         Cd3       1.0000    0.06803   0.42945   0.84897   Biso      1.000     Cd          0.9817809999999999  
         Cd4       1.0000    0.50728   0.02174   0.11994   Biso      1.000     Cd          0.8242079999999999  
         Cd5       1.0000    0.77411   0.67767   0.98200   Biso      1.000     Cd          0.905782  
         Cd6       1.0000    0.57055   0.93197   0.65103   Biso      1.000     Cd          0.9817809999999999  
         Cd7       1.0000    0.97826   0.49272   0.38006   Biso      1.000     Cd          0.82421   
         Cd8       1.0000    0.67767   0.77411   0.48200   Biso      1.000     Cd          0.905776  
         Cd9       1.0000    0.93197   0.57055   0.15103   Biso      1.000     Cd          0.981784  
         Cd10      1.0000    0.22589   0.32233   0.01800   Biso      1.000     Cd          0.9057870000000001  
         Cd11      1.0000    0.42945   0.06803   0.34897   Biso      1.000     Cd          0.9817899999999999  
         Cd12      1.0000    0.02174   0.50728   0.61994   Biso      1.000     Cd          0.824217  
         Cd13      1.0000    0.83404   0.16596   0.75000   Biso      1.000     Cd          0.933098  
         Cd14      1.0000    0.16596   0.83404   0.25000   Biso      1.000     Cd          0.9331010000000001  
         H1        1.0000    0.42820   0.43740   0.10280   Biso      1.000     H          0.12133699999999999           
         H2        1.0000    0.33150   0.54550   0.08770   Biso      1.000     H          0.101609  
         H3        1.0000    0.33480   0.52180   0.48650   Biso      1.000     H          0.11776500000000001           
         H4        1.0000    0.52180   0.33480   0.98650   Biso      1.000     H          0.117755  
         H5        1.0000    0.38320   0.48120   0.40280   Biso      1.000     H          0.10681600000000001           
         H6        1.0000    0.56260   0.57180   0.39720   Biso      1.000     H          0.121341  
         H7        1.0000    0.45450   0.66850   0.41230   Biso      1.000     H          0.10157999999999999           
         H8        1.0000    0.66520   0.47820   0.51350   Biso      1.000     H          0.11776400000000001           
         H9        1.0000    0.61680   0.51880   0.59720   Biso      1.000     H          0.10681500000000001           
         H10       1.0000    0.48120   0.38320   0.90280   Biso      1.000     H          0.10684500000000001           
         H11       1.0000    0.66850   0.45450   0.91230   Biso      1.000     H          0.101609  
         H12       1.0000    0.54550   0.33150   0.58770   Biso      1.000     H          0.10157999999999999           
         H13       1.0000    0.47820   0.66520   0.01350   Biso      1.000     H          0.117754  
         H14       1.0000    0.51880   0.61680   0.09720   Biso      1.000     H          0.10684500000000001           
         H15       1.0000    0.43740   0.42820   0.60280   Biso      1.000     H          0.121342  
         H16       1.0000    0.57180   0.56260   0.89720   Biso      1.000     H          0.12133599999999999           
         N1        1.0000    0.56960   0.91600   0.30620   Biso      1.000     N          -0.012232           
         N2        1.0000    0.27570   0.86130   0.11930   Biso      1.000     N          -0.253153           
         N3        1.0000    0.58400   0.90360   0.22980   Biso      1.000     N          -0.17264000000000002          
         N4        1.0000    0.38170   0.89930   0.00080   Biso      1.000     N          -0.174679           
         N5        1.0000    0.16330   0.35590   0.15460   Biso      1.000     N          -0.193906           
         N6        1.0000    0.08400   0.43040   0.19380   Biso      1.000     N          -0.012206           
         N7        1.0000    0.38150   0.45810   0.99220   Biso      1.000     N          -0.191658           
         N8        1.0000    0.13870   0.72430   0.38070   Biso      1.000     N          -0.253157           
         N9        1.0000    0.09640   0.41600   0.27020   Biso      1.000     N          -0.17264300000000002          
         N10       1.0000    0.10070   0.61830   0.49920   Biso      1.000     N          -0.174681           
         N11       1.0000    0.36810   0.91930   0.07650   Biso      1.000     N          -0.016133           
         N12       1.0000    0.08070   0.63190   0.42350   Biso      1.000     N          -0.016136           
         N13       1.0000    0.64410   0.83670   0.34540   Biso      1.000     N          -0.193892           
         N14       1.0000    0.54190   0.61850   0.50780   Biso      1.000     N          -0.19159600000000002          
         N15       1.0000    0.90360   0.58400   0.72980   Biso      1.000     N          -0.172677           
         N16       1.0000    0.89930   0.38170   0.50080   Biso      1.000     N          -0.174675           
         N17       1.0000    0.35590   0.16330   0.65460   Biso      1.000     N          -0.193921           
         N18       1.0000    0.63190   0.08070   0.92350   Biso      1.000     N          -0.016202           
         N19       1.0000    0.45810   0.38150   0.49220   Biso      1.000     N          -0.191598           
         N20       1.0000    0.72430   0.13870   0.88070   Biso      1.000     N          -0.253116           
         N21       1.0000    0.41600   0.09640   0.77020   Biso      1.000     N          -0.172677           
         N22       1.0000    0.43040   0.08400   0.69380   Biso      1.000     N          -0.012171           
         N23       1.0000    0.83670   0.64410   0.84540   Biso      1.000     N          -0.19391  
         N24       1.0000    0.91930   0.36810   0.57650   Biso      1.000     N          -0.016172           
         N25       1.0000    0.91600   0.56960   0.80620   Biso      1.000     N          -0.012172           
         N26       1.0000    0.61850   0.54190   0.00780   Biso      1.000     N          -0.191658           
         N27       1.0000    0.86130   0.27570   0.61930   Biso      1.000     N          -0.253123           
         N28       1.0000    0.61830   0.10070   0.99920   Biso      1.000     N          -0.17464200000000002          
         O1        1.0000    0.89629   0.51389   0.03377   Biso      1.000     O          -0.435605           
         O2        1.0000    0.77370   0.69970   0.11580   Biso      1.000     O          -0.550419           
         O3        1.0000    0.87890   0.62150   0.27690   Biso      1.000     O          -0.5198699999999999           
         O4        1.0000    0.08920   0.71700   0.17660   Biso      1.000     O          -0.578159           
         O5        1.0000    0.63850   0.84470   0.08290   Biso      1.000     O          -0.541792           
         O6        1.0000    0.23860   0.69560   0.91070   Biso      1.000     O          -0.46396099999999996          
         O7        1.0000    0.79880   0.65440   0.39710   Biso      1.000     O          -0.5355449999999999           
         O8        1.0000    0.15530   0.36150   0.41710   Biso      1.000     O          -0.541798           
         O9        1.0000    0.16060   0.63720   0.64320   Biso      1.000     O          -0.562605           
         O10       1.0000    0.30030   0.22630   0.38420   Biso      1.000     O          -0.550429           
         O11       1.0000    0.37850   0.12110   0.22310   Biso      1.000     O          -0.5198689999999999           
         O12       1.0000    0.28300   0.91080   0.32340   Biso      1.000     O          -0.578156           
         O13       1.0000    0.36280   0.83940   0.85680   Biso      1.000     O          -0.5626   
         O14       1.0000    0.30440   0.76140   0.58930   Biso      1.000     O          -0.463942           
         O15       1.0000    0.48611   0.10371   0.46623   Biso      1.000     O          -0.43561400000000006          
         O16       1.0000    0.06400   0.68860   0.05600   Biso      1.000     O          -0.464359           
         O17       1.0000    0.68860   0.06400   0.55600   Biso      1.000     O          -0.46436000000000005          
         O18       1.0000    0.69970   0.77370   0.61580   Biso      1.000     O          -0.550428           
         O19       1.0000    0.51389   0.89629   0.53377   Biso      1.000     O          -0.43561400000000006          
         O20       1.0000    0.34560   0.20120   0.10290   Biso      1.000     O          -0.5355439999999999           
         O21       1.0000    0.63720   0.16060   0.14320   Biso      1.000     O          -0.562602           
         O22       1.0000    0.22630   0.30030   0.88420   Biso      1.000     O          -0.55042  
         O23       1.0000    0.12110   0.37850   0.72310   Biso      1.000     O          -0.5198699999999999           
         O24       1.0000    0.91080   0.28300   0.82340   Biso      1.000     O          -0.578159           
         O25       1.0000    0.36150   0.15530   0.91710   Biso      1.000     O          -0.54179  
         O26       1.0000    0.76140   0.30440   0.08930   Biso      1.000     O          -0.46397  
         O27       1.0000    0.10371   0.48611   0.96623   Biso      1.000     O          -0.43561099999999997          
         O28       1.0000    0.20120   0.34560   0.60290   Biso      1.000     O          -0.5355439999999999           
         O29       1.0000    0.93600   0.31140   0.94400   Biso      1.000     O          -0.464358           
         O30       1.0000    0.83940   0.36280   0.35680   Biso      1.000     O          -0.562604           
         O31       1.0000    0.62150   0.87890   0.77690   Biso      1.000     O          -0.5198689999999999           
         O32       1.0000    0.71700   0.08920   0.67660   Biso      1.000     O          -0.578156           
         O33       1.0000    0.84470   0.63850   0.58290   Biso      1.000     O          -0.541797           
         O34       1.0000    0.69560   0.23860   0.41070   Biso      1.000     O          -0.46394799999999997          
         O35       1.0000    0.65440   0.79880   0.89710   Biso      1.000     O          -0.535543           
         O36       1.0000    0.31140   0.93600   0.44400   Biso      1.000     O          -0.46436099999999997 