
##########################################################################
#               Crystallographic Information Format file
#               Produced by PyCifRW module
#
#  This is a CIF file.  CIF has been adopted by the International
#  Union of Crystallography as the standard for data archiving and
#  transmission.
#
#  For information on this file format, follow the CIF links at
#  http://www.iucr.org
##########################################################################

data_image0

_cell_length_a                          9.315
_cell_length_b                          13.2
_cell_length_c                          15.455
_cell_angle_alpha                       90
_cell_angle_beta                        106.816
_cell_angle_gamma                       90
_symmetry_space_group_name_H-M          'P 1'
_symmetry_int_tables_number             1
loop_
  _symmetry_equiv_pos_as_xyz
         'x, y, z' 
loop_
  _atom_site_label
  _atom_site_occupancy
  _atom_site_fract_x
  _atom_site_fract_y
  _atom_site_fract_z
  _atom_site_thermal_displace_type
  _atom_site_B_iso_or_equiv
  _atom_site_type_symbol
  _atom_site_charge
         C1        1.0000    0.21770   0.10790   0.02080   Biso      1.000     C          0.010969  
         C2        1.0000    0.54880   0.29380   0.59370   Biso      1.000     C          0.004543999999999999          
         C3        1.0000    0.46050   0.22540   0.73290   Biso      1.000     C          0.593314  
         C4        1.0000    0.11840   0.28850   0.55190   Biso      1.000     C          0.568492  
         C5        1.0000    0.66490   0.44040   0.08470   Biso      1.000     C          -0.006386           
         C6        1.0000    0.98450   0.20320   0.66390   Biso      1.000     C          -0.001134           
         C7        1.0000    0.96050   0.27460   0.73290   Biso      1.000     C          0.593314  
         C8        1.0000    0.53220   0.42680   0.11650   Biso      1.000     C          0.518835  
         C9        1.0000    0.65920   0.30320   0.96240   Biso      1.000     C          0.5796180000000001  
         C10       1.0000    0.04880   0.20620   0.59370   Biso      1.000     C          0.004542  
         C11       1.0000    0.71770   0.39210   0.02080   Biso      1.000     C          0.010968  
         C12       1.0000    0.38160   0.78850   0.44810   Biso      1.000     C          0.568496  
         C13       1.0000    0.83510   0.94040   0.91530   Biso      1.000     C          -0.006384           
         C14       1.0000    0.51550   0.70320   0.33610   Biso      1.000     C          -0.001129           
         C15       1.0000    0.53950   0.77460   0.26710   Biso      1.000     C          0.593314  
         C16       1.0000    0.96780   0.92680   0.88350   Biso      1.000     C          0.518844  
         C17       1.0000    0.84080   0.80320   0.03760   Biso      1.000     C          0.579616  
         C18       1.0000    0.45120   0.70620   0.40630   Biso      1.000     C          0.004545  
         C19       1.0000    0.78230   0.89210   0.97920   Biso      1.000     C          0.010969  
         C20       1.0000    0.48450   0.29680   0.66390   Biso      1.000     C          -0.0011300000000000001        
         C21       1.0000    0.16490   0.05960   0.08470   Biso      1.000     C          -0.006382           
         C22       1.0000    0.61840   0.21150   0.55190   Biso      1.000     C          0.568493  
         C23       1.0000    0.28230   0.60790   0.97920   Biso      1.000     C          0.01097   
         C24       1.0000    0.95120   0.79380   0.40630   Biso      1.000     C          0.004543999999999999          
         C25       1.0000    0.34080   0.69680   0.03760   Biso      1.000     C          0.579616  
         C26       1.0000    0.46780   0.57320   0.88350   Biso      1.000     C          0.518843  
         C27       1.0000    0.03950   0.72540   0.26710   Biso      1.000     C          0.593314  
         C28       1.0000    0.01550   0.79680   0.33610   Biso      1.000     C          -0.001129           
         C29       1.0000    0.33510   0.55960   0.91530   Biso      1.000     C          -0.006386           
         C30       1.0000    0.88160   0.71150   0.44810   Biso      1.000     C          0.568496  
         C31       1.0000    0.15920   0.19680   0.96240   Biso      1.000     C          0.5796180000000001  
         C32       1.0000    0.03220   0.07320   0.11650   Biso      1.000     C          0.518836  
         Cd1       1.0000    0.57147   0.87376   0.11081   Biso      1.000     Cd          0.934052  
         Cd2       1.0000    0.24499   0.91597   0.25685   Biso      1.000     Cd          0.9501860000000001  
         Cd3       1.0000    0.14416   0.10126   0.43875   Biso      1.000     Cd          0.88882   
         Cd4       1.0000    0.07147   0.62624   0.11081   Biso      1.000     Cd          0.93406   
         Cd5       1.0000    0.25501   0.41597   0.74315   Biso      1.000     Cd          0.950182  
         Cd6       1.0000    0.35584   0.60126   0.56125   Biso      1.000     Cd          0.888824  
         Cd7       1.0000    0.42853   0.12624   0.88919   Biso      1.000     Cd          0.9340579999999999  
         Cd8       1.0000    0.75501   0.08403   0.74315   Biso      1.000     Cd          0.950182  
         Cd9       1.0000    0.85584   0.89874   0.56125   Biso      1.000     Cd          0.8888309999999999  
         Cd10      1.0000    0.92853   0.37376   0.88919   Biso      1.000     Cd          0.934056  
         Cd11      1.0000    0.74499   0.58403   0.25685   Biso      1.000     Cd          0.950183  
         Cd12      1.0000    0.64416   0.39874   0.43875   Biso      1.000     Cd          0.8888229999999999  
         Cl1       1.0000    0.80542   0.40133   0.32989   Biso      1.000     Cl          -0.447542           
         Cl2       1.0000    0.69458   0.90133   0.67011   Biso      1.000     Cl          -0.447543           
         Cl3       1.0000    0.19458   0.59867   0.67011   Biso      1.000     Cl          -0.447542           
         Cl4       1.0000    0.30542   0.09867   0.32989   Biso      1.000     Cl          -0.447542           
         N1        1.0000    0.96870   0.88580   0.44470   Biso      1.000     N          -0.20508099999999999          
         N2        1.0000    0.07050   0.89120   0.33550   Biso      1.000     N          -0.168774           
         N3        1.0000    0.04050   0.94350   0.40100   Biso      1.000     N          -0.032186           
         N4        1.0000    0.15660   0.56040   0.98330   Biso      1.000     N          -0.203841           
         N5        1.0000    0.13070   0.48570   0.92140   Biso      1.000     N          -0.035071           
         N6        1.0000    0.23830   0.48360   0.88040   Biso      1.000     N          -0.168533           
         N7        1.0000    0.53130   0.38580   0.55530   Biso      1.000     N          -0.20508099999999999          
         N8        1.0000    0.42950   0.39120   0.66450   Biso      1.000     N          -0.168774           
         N9        1.0000    0.45950   0.44350   0.59900   Biso      1.000     N          -0.032187           
         N10       1.0000    0.34340   0.06040   0.01670   Biso      1.000     N          -0.203846           
         N11       1.0000    0.86930   0.51430   0.07860   Biso      1.000     N          -0.035098000000000004         
         N12       1.0000    0.26170   0.98360   0.11960   Biso      1.000     N          -0.168569           
         N13       1.0000    0.36930   0.98570   0.07860   Biso      1.000     N          -0.035035000000000004         
         N14       1.0000    0.73830   0.01640   0.88040   Biso      1.000     N          -0.16856400000000002          
         N15       1.0000    0.63070   0.01430   0.92140   Biso      1.000     N          -0.035063           
         N16       1.0000    0.65660   0.93960   0.98330   Biso      1.000     N          -0.203818           
         N17       1.0000    0.57050   0.60880   0.33550   Biso      1.000     N          -0.168774           
         N18       1.0000    0.46870   0.61420   0.44470   Biso      1.000     N          -0.20508099999999999          
         N19       1.0000    0.54050   0.55650   0.40100   Biso      1.000     N          -0.032186           
         N20       1.0000    0.84340   0.43960   0.01670   Biso      1.000     N          -0.203815           
         N21       1.0000    0.95950   0.05650   0.59900   Biso      1.000     N          -0.032255           
         N22       1.0000    0.92950   0.10880   0.66450   Biso      1.000     N          -0.168731           
         N23       1.0000    0.03130   0.11420   0.55530   Biso      1.000     N          -0.205048           
         N24       1.0000    0.76170   0.51640   0.11960   Biso      1.000     N          -0.16852999999999999          
         O1        1.0000    0.52760   0.14250   0.74930   Biso      1.000     O          -0.53479  
         O2        1.0000    0.21890   0.22090   0.90360   Biso      1.000     O          -0.487666           
         O3        1.0000    0.94490   0.14990   0.08600   Biso      1.000     O          -0.26111100000000004          
         O4        1.0000    0.05030   0.24430   0.97820   Biso      1.000     O          -0.431429           
         O5        1.0000    0.61070   0.12260   0.57930   Biso      1.000     O          -0.547772           
         O6        1.0000    0.00450   0.01250   0.16930   Biso      1.000     O          -0.470505           
         O7        1.0000    0.88930   0.62260   0.42070   Biso      1.000     O          -0.547782           
         O8        1.0000    0.13050   0.75400   0.22520   Biso      1.000     O          -0.5231210000000001           
         O9        1.0000    0.97240   0.64250   0.25070   Biso      1.000     O          -0.534791           
         O10       1.0000    0.55510   0.64990   0.91400   Biso      1.000     O          -0.261128           
         O11       1.0000    0.44970   0.74430   0.02180   Biso      1.000     O          -0.431424           
         O12       1.0000    0.36950   0.25400   0.77480   Biso      1.000     O          -0.5231210000000001           
         O13       1.0000    0.28110   0.72090   0.09640   Biso      1.000     O          -0.48766499999999996          
         O14       1.0000    0.67840   0.23680   0.49260   Biso      1.000     O          -0.523893           
         O15       1.0000    0.17840   0.26320   0.49260   Biso      1.000     O          -0.523893           
         O16       1.0000    0.02760   0.35750   0.74930   Biso      1.000     O          -0.534791           
         O17       1.0000    0.71890   0.27910   0.90360   Biso      1.000     O          -0.487666           
         O18       1.0000    0.11070   0.37740   0.57930   Biso      1.000     O          -0.547771           
         O19       1.0000    0.55030   0.25570   0.97820   Biso      1.000     O          -0.43143000000000004          
         O20       1.0000    0.44490   0.35010   0.08600   Biso      1.000     O          -0.26110900000000004          
         O21       1.0000    0.86950   0.24600   0.77480   Biso      1.000     O          -0.523122           
         O22       1.0000    0.32160   0.76320   0.50740   Biso      1.000     O          -0.523894           
         O23       1.0000    0.99550   0.98750   0.83070   Biso      1.000     O          -0.47050600000000004          
         O24       1.0000    0.78110   0.77910   0.09640   Biso      1.000     O          -0.48766400000000004          
         O25       1.0000    0.38930   0.87740   0.42070   Biso      1.000     O          -0.547782           
         O26       1.0000    0.94970   0.75570   0.02180   Biso      1.000     O          -0.43142299999999995          
         O27       1.0000    0.05510   0.85010   0.91400   Biso      1.000     O          -0.26113000000000003          
         O28       1.0000    0.47240   0.85750   0.25070   Biso      1.000     O          -0.534791           
         O29       1.0000    0.63050   0.74600   0.22520   Biso      1.000     O          -0.52312  
         O30       1.0000    0.49550   0.51250   0.83070   Biso      1.000     O          -0.47050600000000004          
         O31       1.0000    0.50450   0.48750   0.16930   Biso      1.000     O          -0.470505           
         O32       1.0000    0.82160   0.73680   0.50740   Biso      1.000     O          -0.523896 