
##########################################################################
#               Crystallographic Information Format file
#               Produced by PyCifRW module
#
#  This is a CIF file.  CIF has been adopted by the International
#  Union of Crystallography as the standard for data archiving and
#  transmission.
#
#  For information on this file format, follow the CIF links at
#  http://www.iucr.org
##########################################################################

data_image0

_cell_length_a                          17.6943
_cell_length_b                          17.6943
_cell_length_c                          13.2921
_cell_angle_alpha                       90
_cell_angle_beta                        90
_cell_angle_gamma                       120
_symmetry_space_group_name_H-M          'P 1'
_symmetry_int_tables_number             1
loop_
  _symmetry_equiv_pos_as_xyz
         'x, y, z' 
loop_
  _atom_site_label
  _atom_site_occupancy
  _atom_site_fract_x
  _atom_site_fract_y
  _atom_site_fract_z
  _atom_site_thermal_displace_type
  _atom_site_B_iso_or_equiv
  _atom_site_type_symbol
  _atom_site_charge
         C1        1.0000    0.52250   0.54630   0.83520   Biso      1.000     C          0.373453  
         C2        1.0000    0.84470   0.53500   0.32430   Biso      1.000     C          0.071349  
         C3        1.0000    0.46500   0.30970   0.32430   Biso      1.000     C          0.071971  
         C4        1.0000    0.32240   0.83760   0.27290   Biso      1.000     C          0.072944  
         C5        1.0000    0.15530   0.46500   0.82430   Biso      1.000     C          0.071346  
         C6        1.0000    0.11300   0.36410   0.80880   Biso      1.000     C          -0.47094  
         C7        1.0000    0.23760   0.51160   0.75910   Biso      1.000     C          0.597894  
         C8        1.0000    0.80100   0.46870   0.67110   Biso      1.000     C          -0.46923  
         C9        1.0000    0.76230   0.48410   0.85060   Biso      1.000     C          0.603685  
         C10       1.0000    0.83760   0.51520   0.77290   Biso      1.000     C          0.072851  
         C11       1.0000    0.02380   0.47750   0.83520   Biso      1.000     C          0.373979  
         C12       1.0000    0.97740   0.51760   0.77820   Biso      1.000     C          0.355567  
         C13       1.0000    0.36410   0.25110   0.30880   Biso      1.000     C          -0.471147           
         C14       1.0000    0.69030   0.15530   0.32430   Biso      1.000     C          0.071466  
         C15       1.0000    0.51760   0.54020   0.27820   Biso      1.000     C          0.356689  
         C16       1.0000    0.47750   0.45370   0.33520   Biso      1.000     C          0.373456  
         C17       1.0000    0.51520   0.67760   0.27290   Biso      1.000     C          0.072706  
         C18       1.0000    0.74890   0.11300   0.30880   Biso      1.000     C          -0.471036           
         C19       1.0000    0.48410   0.72180   0.35060   Biso      1.000     C          0.603603  
         C20       1.0000    0.46870   0.66770   0.17110   Biso      1.000     C          -0.469232           
         C21       1.0000    0.72600   0.23760   0.25910   Biso      1.000     C          0.598479  
         C22       1.0000    0.33230   0.80100   0.17110   Biso      1.000     C          -0.469232           
         C23       1.0000    0.48240   0.45980   0.77820   Biso      1.000     C          0.356689  
         C24       1.0000    0.27820   0.76230   0.35060   Biso      1.000     C          0.603918  
         C25       1.0000    0.51160   0.27400   0.25910   Biso      1.000     C          0.598682  
         C26       1.0000    0.88700   0.63590   0.30880   Biso      1.000     C          -0.470943           
         C27       1.0000    0.30970   0.84470   0.82430   Biso      1.000     C          0.071465  
         C28       1.0000    0.25110   0.88700   0.80880   Biso      1.000     C          -0.471033           
         C29       1.0000    0.27400   0.76240   0.75910   Biso      1.000     C          0.59848   
         C30       1.0000    0.66770   0.19900   0.67110   Biso      1.000     C          -0.469233           
         C31       1.0000    0.72180   0.23770   0.85060   Biso      1.000     C          0.603919  
         C32       1.0000    0.67760   0.16240   0.77290   Biso      1.000     C          0.072942  
         C33       1.0000    0.45370   0.97620   0.83520   Biso      1.000     C          0.373726  
         C34       1.0000    0.54020   0.02260   0.77820   Biso      1.000     C          0.356221  
         C35       1.0000    0.45980   0.97740   0.27820   Biso      1.000     C          0.356222  
         C36       1.0000    0.48480   0.32240   0.77290   Biso      1.000     C          0.072708  
         C37       1.0000    0.54630   0.02380   0.33520   Biso      1.000     C          0.373725  
         C38       1.0000    0.02260   0.48240   0.27820   Biso      1.000     C          0.355559  
         C39       1.0000    0.97620   0.52250   0.33520   Biso      1.000     C          0.373972  
         C40       1.0000    0.16240   0.48480   0.27290   Biso      1.000     C          0.072847  
         C41       1.0000    0.63590   0.74890   0.80880   Biso      1.000     C          -0.471145           
         C42       1.0000    0.23770   0.51590   0.35060   Biso      1.000     C          0.603683  
         C43       1.0000    0.19900   0.53130   0.17110   Biso      1.000     C          -0.469229           
         C44       1.0000    0.48840   0.72600   0.75910   Biso      1.000     C          0.598682  
         C45       1.0000    0.53130   0.33230   0.67110   Biso      1.000     C          -0.469232           
         C46       1.0000    0.51590   0.27820   0.85060   Biso      1.000     C          0.603602  
         C47       1.0000    0.76240   0.48840   0.25910   Biso      1.000     C          0.59789   
         C48       1.0000    0.53500   0.69030   0.82430   Biso      1.000     C          0.07197   
         Ca1       1.0000    0.33333   0.66667   0.55630   Biso      1.000     Ca          1.433376  
         Ca2       1.0000    0.66667   0.33333   0.05630   Biso      1.000     Ca          1.433373  
         Cu1       1.0000    0.58025   0.44662   0.93051   Biso      1.000     Cu          0.855525  
         Cu2       1.0000    0.57526   0.44217   0.18047   Biso      1.000     Cu          0.85909   
         Cu3       1.0000    0.55783   0.13309   0.18047   Biso      1.000     Cu          0.858606  
         Cu4       1.0000    0.55338   0.13363   0.93051   Biso      1.000     Cu          0.855503  
         Cu5       1.0000    0.86637   0.41975   0.93051   Biso      1.000     Cu          0.85661   
         Cu6       1.0000    0.44662   0.86637   0.43051   Biso      1.000     Cu          0.855499  
         Cu7       1.0000    0.13309   0.57526   0.68047   Biso      1.000     Cu          0.858371  
         Cu8       1.0000    0.86691   0.42474   0.18047   Biso      1.000     Cu          0.858371  
         Cu9       1.0000    0.13363   0.58025   0.43051   Biso      1.000     Cu          0.856577  
         Cu10      1.0000    0.41975   0.55338   0.43051   Biso      1.000     Cu          0.855525  
         Cu11      1.0000    0.44217   0.86691   0.68047   Biso      1.000     Cu          0.858592  
         Cu12      1.0000    0.42474   0.55783   0.68047   Biso      1.000     Cu          0.859097  
         H1        1.0000    0.23100   0.59460   0.18160   Biso      1.000     H          0.153899  
         H2        1.0000    0.42030   0.28590   0.76360   Biso      1.000     H          0.099714  
         H3        1.0000    0.93870   0.66640   0.35180   Biso      1.000     H          0.167718  
         H4        1.0000    0.84470   0.65400   0.32670   Biso      1.000     H          0.163565  
         H5        1.0000    0.90420   0.65040   0.23820   Biso      1.000     H          0.156272  
         H6        1.0000    0.68500   0.50700   0.05900   Biso      1.000     H          0.4731    
         H7        1.0000    0.17120   0.47980   0.89670   Biso      1.000     H          0.102569  
         H8        1.0000    0.09580   0.34960   0.73820   Biso      1.000     H          0.156271  
         H9        1.0000    0.15530   0.34600   0.82670   Biso      1.000     H          0.163561  
         H10       1.0000    0.06130   0.33360   0.85180   Biso      1.000     H          0.167717  
         H11       1.0000    0.76900   0.40540   0.68160   Biso      1.000     H          0.153905  
         H12       1.0000    0.76150   0.48710   0.64310   Biso      1.000     H          0.157839  
         H13       1.0000    0.84930   0.48410   0.62420   Biso      1.000     H          0.16661   
         H14       1.0000    0.23850   0.51290   0.14310   Biso      1.000     H          0.157834  
         H15       1.0000    0.51590   0.36520   0.62420   Biso      1.000     H          0.167044  
         H16       1.0000    0.51290   0.27440   0.64310   Biso      1.000     H          0.157652  
         H17       1.0000    0.59460   0.36360   0.68160   Biso      1.000     H          0.153809  
         H18       1.0000    0.30860   0.82880   0.89670   Biso      1.000     H          0.10228   
         H19       1.0000    0.25380   0.90420   0.73820   Biso      1.000     H          0.156133  
         H20       1.0000    0.19070   0.84470   0.82670   Biso      1.000     H          0.163288  
         H21       1.0000    0.27230   0.93870   0.85180   Biso      1.000     H          0.167578  
         H22       1.0000    0.63640   0.23100   0.68160   Biso      1.000     H          0.153968  
         H23       1.0000    0.72560   0.23850   0.64310   Biso      1.000     H          0.157644  
         H24       1.0000    0.63480   0.15070   0.62420   Biso      1.000     H          0.16692   
         H25       1.0000    0.31500   0.49300   0.55900   Biso      1.000     H          0.4731    
         H26       1.0000    0.17800   0.68500   0.55900   Biso      1.000     H          0.473502  
         H27       1.0000    0.49300   0.17800   0.05900   Biso      1.000     H          0.473493  
         H28       1.0000    0.52020   0.69140   0.89670   Biso      1.000     H          0.101901  
         H29       1.0000    0.65040   0.74620   0.73820   Biso      1.000     H          0.155957  
         H30       1.0000    0.65400   0.80930   0.82670   Biso      1.000     H          0.163007  
         H31       1.0000    0.66640   0.72770   0.85180   Biso      1.000     H          0.167383  
         H32       1.0000    0.13440   0.42030   0.26360   Biso      1.000     H          0.099679  
         H33       1.0000    0.15070   0.51590   0.12420   Biso      1.000     H          0.166604  
         H34       1.0000    0.71410   0.13440   0.76360   Biso      1.000     H          0.099825  
         H35       1.0000    0.86560   0.57970   0.76360   Biso      1.000     H          0.099671  
         H36       1.0000    0.47980   0.30860   0.39670   Biso      1.000     H          0.101901  
         H37       1.0000    0.36520   0.84930   0.12420   Biso      1.000     H          0.16692   
         H38       1.0000    0.50700   0.82200   0.55900   Biso      1.000     H          0.473496  
         H39       1.0000    0.34960   0.25380   0.23820   Biso      1.000     H          0.155962  
         H40       1.0000    0.34600   0.19070   0.32670   Biso      1.000     H          0.163009  
         H41       1.0000    0.33360   0.27230   0.35180   Biso      1.000     H          0.167391  
         H42       1.0000    0.28590   0.86560   0.26360   Biso      1.000     H          0.09983   
         H43       1.0000    0.40540   0.63640   0.18160   Biso      1.000     H          0.153812  
         H44       1.0000    0.48710   0.72560   0.14310   Biso      1.000     H          0.157654  
         H45       1.0000    0.27440   0.76150   0.14310   Biso      1.000     H          0.157646  
         H46       1.0000    0.36360   0.76900   0.18160   Biso      1.000     H          0.153968  
         H47       1.0000    0.48410   0.63480   0.12420   Biso      1.000     H          0.167045  
         H48       1.0000    0.57970   0.71410   0.26360   Biso      1.000     H          0.099721  
         H49       1.0000    0.72770   0.06130   0.35180   Biso      1.000     H          0.167577  
         H50       1.0000    0.80930   0.15530   0.32670   Biso      1.000     H          0.1633    
         H51       1.0000    0.74620   0.09580   0.23820   Biso      1.000     H          0.156131  
         H52       1.0000    0.69140   0.17120   0.39670   Biso      1.000     H          0.10228   
         H53       1.0000    0.82880   0.52020   0.39670   Biso      1.000     H          0.102555  
         H54       1.0000    0.82200   0.31500   0.05900   Biso      1.000     H          0.4735    
         N1        1.0000    0.50590   0.40660   0.81500   Biso      1.000     N          -0.408679           
         N2        1.0000    0.60080   0.09710   0.29320   Biso      1.000     N          -0.412344           
         N3        1.0000    0.40660   0.90070   0.31500   Biso      1.000     N          -0.409234           
         N4        1.0000    0.90290   0.50370   0.29320   Biso      1.000     N          -0.411877           
         N5        1.0000    0.09930   0.50590   0.31500   Biso      1.000     N          -0.409294           
         N6        1.0000    0.59340   0.09930   0.81500   Biso      1.000     N          -0.409234           
         N7        1.0000    0.50370   0.60080   0.79320   Biso      1.000     N          -0.416113           
         N8        1.0000    0.49410   0.59340   0.31500   Biso      1.000     N          -0.408677           
         N9        1.0000    0.49630   0.39920   0.29320   Biso      1.000     N          -0.416111           
         N10       1.0000    0.90070   0.49410   0.81500   Biso      1.000     N          -0.409302           
         N11       1.0000    0.39920   0.90290   0.79320   Biso      1.000     N          -0.412343           
         N12       1.0000    0.09710   0.49630   0.79320   Biso      1.000     N          -0.411878           
         O1        1.0000    0.67560   0.23670   0.92550   Biso      1.000     O          -0.610022           
         O2        1.0000    0.32150   0.76250   0.68550   Biso      1.000     O          -0.597608           
         O3        1.0000    0.01460   0.57060   0.41170   Biso      1.000     O          -0.463382           
         O4        1.0000    0.69950   0.50100   0.27740   Biso      1.000     O          -0.528591           
         O5        1.0000    0.98490   0.43360   0.20050   Biso      1.000     O          -0.455322           
         O6        1.0000    0.67850   0.23750   0.18550   Biso      1.000     O          -0.597608           
         O7        1.0000    0.32440   0.76330   0.42550   Biso      1.000     O          -0.610024           
         O8        1.0000    0.17244   0.63846   0.55750   Biso      1.000     O          -0.954268           
         O9        1.0000    0.79740   0.29620   0.83360   Biso      1.000     O          -0.530569           
         O10       1.0000    0.55900   0.32150   0.18550   Biso      1.000     O          -0.600023           
         O11       1.0000    0.80150   0.30050   0.27740   Biso      1.000     O          -0.534659           
         O12       1.0000    0.50100   0.80150   0.77740   Biso      1.000     O          -0.535464           
         O13       1.0000    0.43360   0.44870   0.70050   Biso      1.000     O          -0.460299           
         O14       1.0000    0.44870   0.01510   0.20050   Biso      1.000     O          -0.457316           
         O15       1.0000    0.42940   0.44400   0.41170   Biso      1.000     O          -0.463134           
         O16       1.0000    0.46602   0.82756   0.55750   Biso      1.000     O          -0.953599           
         O17       1.0000    0.43890   0.67560   0.42550   Biso      1.000     O          -0.608464           
         O18       1.0000    0.63846   0.46602   0.05750   Biso      1.000     O          -0.955889           
         O19       1.0000    0.55600   0.98540   0.41170   Biso      1.000     O          -0.463435           
         O20       1.0000    0.20260   0.70380   0.33360   Biso      1.000     O          -0.53056  
         O21       1.0000    0.44400   0.01460   0.91170   Biso      1.000     O          -0.463436           
         O22       1.0000    0.55130   0.98490   0.70050   Biso      1.000     O          -0.457315           
         O23       1.0000    0.82756   0.36154   0.05750   Biso      1.000     O          -0.954274           
         O24       1.0000    0.50120   0.79740   0.33360   Biso      1.000     O          -0.530263           
         O25       1.0000    0.01510   0.56640   0.70050   Biso      1.000     O          -0.455303           
         O26       1.0000    0.30050   0.49900   0.77740   Biso      1.000     O          -0.528584           
         O27       1.0000    0.44100   0.67850   0.68550   Biso      1.000     O          -0.600026           
         O28       1.0000    0.49900   0.19850   0.27740   Biso      1.000     O          -0.535467           
         O29       1.0000    0.56110   0.32440   0.92550   Biso      1.000     O          -0.608467           
         O30       1.0000    0.98540   0.42940   0.91170   Biso      1.000     O          -0.463377           
         O31       1.0000    0.19850   0.69950   0.77740   Biso      1.000     O          -0.534662           
         O32       1.0000    0.70380   0.50120   0.83360   Biso      1.000     O          -0.531753           
         O33       1.0000    0.76250   0.44100   0.18550   Biso      1.000     O          -0.595421           
         O34       1.0000    0.36154   0.53398   0.55750   Biso      1.000     O          -0.955892           
         O35       1.0000    0.23670   0.56110   0.42550   Biso      1.000     O          -0.610764           
         O36       1.0000    0.29620   0.49880   0.33360   Biso      1.000     O          -0.531753           
         O37       1.0000    0.49880   0.20260   0.83360   Biso      1.000     O          -0.530264           
         O38       1.0000    0.57060   0.55600   0.91170   Biso      1.000     O          -0.463135           
         O39       1.0000    0.53398   0.17244   0.05750   Biso      1.000     O          -0.9536   
         O40       1.0000    0.23750   0.55900   0.68550   Biso      1.000     O          -0.595407           
         O41       1.0000    0.76330   0.43890   0.92550   Biso      1.000     O          -0.610759           
         O42       1.0000    0.56640   0.55130   0.20050   Biso      1.000     O          -0.460297 