
##########################################################################
#               Crystallographic Information Format file
#               Produced by PyCifRW module
#
#  This is a CIF file.  CIF has been adopted by the International
#  Union of Crystallography as the standard for data archiving and
#  transmission.
#
#  For information on this file format, follow the CIF links at
#  http://www.iucr.org
##########################################################################

data_image0

_cell_length_a                          19.415
_cell_length_b                          7.071
_cell_length_c                          11.483
_cell_angle_alpha                       90
_cell_angle_beta                        92.78
_cell_angle_gamma                       90
_symmetry_space_group_name_H-M          'P 1'
_symmetry_int_tables_number             1
loop_
  _symmetry_equiv_pos_as_xyz
         'x, y, z' 
loop_
  _atom_site_label
  _atom_site_occupancy
  _atom_site_fract_x
  _atom_site_fract_y
  _atom_site_fract_z
  _atom_site_thermal_displace_type
  _atom_site_B_iso_or_equiv
  _atom_site_type_symbol
  _atom_site_charge
         C1        1.0000    0.20200   0.88900   0.94900   Biso      1.000     C          0.10618   
         C2        1.0000    0.49600   0.82200   0.56700   Biso      1.000     C          0.058891  
         C3        1.0000    0.68000   0.73000   0.04100   Biso      1.000     C          0.031347  
         C4        1.0000    0.79800   0.88900   0.05100   Biso      1.000     C          0.106177  
         C5        1.0000    0.99600   0.32200   0.56700   Biso      1.000     C          0.058891  
         C6        1.0000    0.18000   0.23000   0.04100   Biso      1.000     C          0.031356  
         C7        1.0000    0.29800   0.38900   0.05100   Biso      1.000     C          0.106184  
         C8        1.0000    0.50400   0.82200   0.43300   Biso      1.000     C          0.058889  
         C9        1.0000    0.32000   0.73000   0.95900   Biso      1.000     C          0.031345  
         C10       1.0000    0.29800   0.61100   0.05100   Biso      1.000     C          0.10618   
         C11       1.0000    0.08900   0.50000   0.72700   Biso      1.000     C          -0.11487  
         C12       1.0000    0.82000   0.23000   0.95900   Biso      1.000     C          0.031355  
         C13       1.0000    0.70200   0.38900   0.94900   Biso      1.000     C          0.10618   
         C14       1.0000    0.41100   0.00000   0.27300   Biso      1.000     C          -0.11488  
         C15       1.0000    0.29400   0.00000   0.82700   Biso      1.000     C          0.01181   
         C16       1.0000    0.91100   0.50000   0.27300   Biso      1.000     C          -0.114868           
         C17       1.0000    0.79400   0.50000   0.82700   Biso      1.000     C          0.011807  
         C18       1.0000    0.58900   0.00000   0.72700   Biso      1.000     C          -0.114873           
         C19       1.0000    0.70600   0.00000   0.17300   Biso      1.000     C          0.0118    
         C20       1.0000    0.00400   0.32200   0.43300   Biso      1.000     C          0.058892  
         C21       1.0000    0.18000   0.77000   0.04100   Biso      1.000     C          0.031353  
         C22       1.0000    0.20600   0.50000   0.17300   Biso      1.000     C          0.011822  
         C23       1.0000    0.99600   0.67800   0.56700   Biso      1.000     C          0.058891  
         C24       1.0000    0.32000   0.27000   0.95900   Biso      1.000     C          0.031342  
         C25       1.0000    0.82000   0.77000   0.95900   Biso      1.000     C          0.031354  
         C26       1.0000    0.70200   0.61100   0.94900   Biso      1.000     C          0.106178  
         C27       1.0000    0.00400   0.67800   0.43300   Biso      1.000     C          0.058892  
         C28       1.0000    0.50400   0.17800   0.43300   Biso      1.000     C          0.058889  
         C29       1.0000    0.68000   0.27000   0.04100   Biso      1.000     C          0.031344  
         C30       1.0000    0.49600   0.17800   0.56700   Biso      1.000     C          0.058892  
         C31       1.0000    0.20200   0.11100   0.94900   Biso      1.000     C          0.106177  
         C32       1.0000    0.79800   0.11100   0.05100   Biso      1.000     C          0.106176  
         N1        1.0000    0.46900   0.00000   0.38100   Biso      1.000     N          0.081175  
         N2        1.0000    0.76100   0.30500   0.87800   Biso      1.000     N          0.068907  
         N3        1.0000    0.76100   0.69500   0.87800   Biso      1.000     N          0.068907  
         N4        1.0000    0.03100   0.50000   0.61900   Biso      1.000     N          0.081169  
         N5        1.0000    0.26100   0.19500   0.87800   Biso      1.000     N          0.068912  
         N6        1.0000    0.23900   0.69500   0.12200   Biso      1.000     N          0.068907  
         N7        1.0000    0.26100   0.80500   0.87800   Biso      1.000     N          0.068911  
         N8        1.0000    0.96900   0.50000   0.38100   Biso      1.000     N          0.081161  
         N9        1.0000    0.53100   0.00000   0.61900   Biso      1.000     N          0.081163  
         N10       1.0000    0.23900   0.30500   0.12200   Biso      1.000     N          0.068906  
         N11       1.0000    0.73900   0.19500   0.12200   Biso      1.000     N          0.068911  
         N12       1.0000    0.73900   0.80500   0.12200   Biso      1.000     N          0.068911  
         O1        1.0000    0.91900   0.50000   0.74000   Biso      1.000     O          -0.540282           
         O2        1.0000    0.83100   0.68200   0.62900   Biso      1.000     O          -0.721874           
         O3        1.0000    0.78700   0.50000   0.17500   Biso      1.000     O          -0.68557  
         O4        1.0000    0.72300   0.50000   0.53200   Biso      1.000     O          -1.08326  
         O5        1.0000    0.77700   0.00000   0.46800   Biso      1.000     O          -1.083262           
         O6        1.0000    0.71300   0.00000   0.82500   Biso      1.000     O          -0.685572           
         O7        1.0000    0.30400   0.15800   0.36700   Biso      1.000     O          -0.817676           
         O8        1.0000    0.27700   0.50000   0.46800   Biso      1.000     O          -1.08327  
         O9        1.0000    0.08100   0.50000   0.26000   Biso      1.000     O          -0.540285           
         O10       1.0000    0.21300   0.50000   0.82500   Biso      1.000     O          -0.685561           
         O11       1.0000    0.58100   0.00000   0.26000   Biso      1.000     O          -0.540278           
         O12       1.0000    0.28700   0.00000   0.17500   Biso      1.000     O          -0.685562           
         O13       1.0000    0.33100   0.18200   0.62900   Biso      1.000     O          -0.721866           
         O14       1.0000    0.22300   0.00000   0.53200   Biso      1.000     O          -1.083273           
         O15       1.0000    0.19600   0.65800   0.63300   Biso      1.000     O          -0.817676           
         O16       1.0000    0.66900   0.81800   0.37100   Biso      1.000     O          -0.721875           
         O17       1.0000    0.69600   0.84200   0.63300   Biso      1.000     O          -0.817678           
         O18       1.0000    0.16900   0.68200   0.37100   Biso      1.000     O          -0.721867           
         O19       1.0000    0.16900   0.31800   0.37100   Biso      1.000     O          -0.721867           
         O20       1.0000    0.19600   0.34200   0.63300   Biso      1.000     O          -0.817676           
         O21       1.0000    0.69600   0.15800   0.63300   Biso      1.000     O          -0.817678           
         O22       1.0000    0.33100   0.81800   0.62900   Biso      1.000     O          -0.721866           
         O23       1.0000    0.30400   0.84200   0.36700   Biso      1.000     O          -0.817676           
         O24       1.0000    0.41900   0.00000   0.74000   Biso      1.000     O          -0.540279           
         O25       1.0000    0.66900   0.18200   0.37100   Biso      1.000     O          -0.721875           
         O26       1.0000    0.83100   0.31800   0.62900   Biso      1.000     O          -0.721874           
         O27       1.0000    0.80400   0.34200   0.36700   Biso      1.000     O          -0.817677           
         O28       1.0000    0.80400   0.65800   0.36700   Biso      1.000     O          -0.817677           
         P1        1.0000    0.68000   0.00000   0.70300   Biso      1.000     P          1.397982  
         P2        1.0000    0.15700   0.50000   0.29900   Biso      1.000     P          1.194872  
         P3        1.0000    0.18000   0.50000   0.70300   Biso      1.000     P          1.397979  
         P4        1.0000    0.82000   0.50000   0.29700   Biso      1.000     P          1.397979  
         P5        1.0000    0.84300   0.50000   0.70100   Biso      1.000     P          1.194877  
         P6        1.0000    0.32000   0.00000   0.29700   Biso      1.000     P          1.397982  
         P7        1.0000    0.65700   0.00000   0.29900   Biso      1.000     P          1.19488   
         P8        1.0000    0.34300   0.00000   0.70100   Biso      1.000     P          1.194874  
         Ti1       1.0000    0.25000   0.25000   0.50000   Biso      1.000     Ti          2.286594  
         Ti2       1.0000    0.75000   0.25000   0.50000   Biso      1.000     Ti          2.286587  
         Ti3       1.0000    0.75000   0.75000   0.50000   Biso      1.000     Ti          2.286588  
         Ti4       1.0000    0.25000   0.75000   0.50000   Biso      1.000     Ti          2.286595 