
##########################################################################
#               Crystallographic Information Format file
#               Produced by PyCifRW module
#
#  This is a CIF file.  CIF has been adopted by the International
#  Union of Crystallography as the standard for data archiving and
#  transmission.
#
#  For information on this file format, follow the CIF links at
#  http://www.iucr.org
##########################################################################

data_image0

_cell_length_a                          11.038
_cell_length_b                          11.249
_cell_length_c                          16.132
_cell_angle_alpha                       75.24
_cell_angle_beta                        82.8
_cell_angle_gamma                       75.26
_symmetry_space_group_name_H-M          'P 1'
_symmetry_int_tables_number             1
loop_
  _symmetry_equiv_pos_as_xyz
         'x, y, z' 
loop_
  _atom_site_label
  _atom_site_occupancy
  _atom_site_fract_x
  _atom_site_fract_y
  _atom_site_fract_z
  _atom_site_thermal_displace_type
  _atom_site_B_iso_or_equiv
  _atom_site_type_symbol
  _atom_site_charge
         C1        1.0000    0.23390   0.41450   0.81500   Biso      1.000     C          -0.024922           
         C2        1.0000    0.76610   0.58550   0.18500   Biso      1.000     C          -0.024922           
         C3        1.0000    0.88280   0.16010   0.62340   Biso      1.000     C          -0.10621900000000001          
         C4        1.0000    0.72490   0.70740   0.21290   Biso      1.000     C          0.6887949999999999  
         C5        1.0000    0.94020   0.84330   0.48080   Biso      1.000     C          -0.168648           
         C6        1.0000    0.84520   0.36180   0.12950   Biso      1.000     C          -0.175067           
         C7        1.0000    0.85330   0.16310   0.47900   Biso      1.000     C          -0.144254           
         C8        1.0000    0.72180   0.47960   0.22810   Biso      1.000     C          -0.11079100000000001          
         C9        1.0000    0.80520   0.16270   0.56210   Biso      1.000     C          0.006456999999999999          
         C10       1.0000    0.99100   0.84440   0.39710   Biso      1.000     C          -0.014253           
         C11       1.0000    0.81400   0.87960   0.72850   Biso      1.000     C          0.173423  
         C12       1.0000    0.90100   0.86060   0.32790   Biso      1.000     C          0.686928  
         C13       1.0000    0.02090   0.83840   0.54380   Biso      1.000     C          0.171291  
         C14       1.0000    0.68530   0.90570   0.74160   Biso      1.000     C          -0.164925           
         C15       1.0000    0.67270   0.15620   0.58790   Biso      1.000     C          0.58963   
         C16       1.0000    0.88910   0.47010   0.08640   Biso      1.000     C          0.177739  
         C17       1.0000    0.84870   0.58010   0.11250   Biso      1.000     C          -0.162525           
         C18       1.0000    0.16990   0.08440   0.13250   Biso      1.000     C          -0.016888999999999998         
         C19       1.0000    0.88740   0.88800   0.79180   Biso      1.000     C          -0.132857           
         C20       1.0000    0.11260   0.11200   0.20820   Biso      1.000     C          -0.132854           
         C21       1.0000    0.28380   0.75000   0.75390   Biso      1.000     C          0.637175  
         C22       1.0000    0.23780   0.63410   0.80000   Biso      1.000     C          -0.017691           
         C23       1.0000    0.30170   0.05960   0.11880   Biso      1.000     C          -0.08515700000000001          
         C24       1.0000    0.37440   0.06110   0.18350   Biso      1.000     C          -0.011531           
         C25       1.0000    0.09510   0.07500   0.06520   Biso      1.000     C          0.6916720000000001  
         C26       1.0000    0.27510   0.29260   0.78710   Biso      1.000     C          0.6887949999999999  
         C27       1.0000    0.51360   0.02210   0.17410   Biso      1.000     C          0.643764  
         C28       1.0000    0.83010   0.91560   0.86750   Biso      1.000     C          -0.016886           
         C29       1.0000    0.31470   0.09430   0.25840   Biso      1.000     C          -0.164937           
         C30       1.0000    0.48640   0.97790   0.82590   Biso      1.000     C          0.643764  
         C31       1.0000    0.62560   0.93890   0.81650   Biso      1.000     C          -0.011533           
         C32       1.0000    0.69830   0.94040   0.88120   Biso      1.000     C          -0.085158           
         C33       1.0000    0.97910   0.16160   0.45620   Biso      1.000     C          0.171299  
         C34       1.0000    0.05980   0.15670   0.51920   Biso      1.000     C          -0.168651           
         C35       1.0000    0.09900   0.13940   0.67210   Biso      1.000     C          0.686929  
         C36       1.0000    0.18600   0.12040   0.27150   Biso      1.000     C          0.173427  
         C37       1.0000    0.11090   0.52990   0.91360   Biso      1.000     C          0.17774700000000002           
         C38       1.0000    0.32730   0.84380   0.41210   Biso      1.000     C          0.58963   
         C39       1.0000    0.14670   0.83690   0.52100   Biso      1.000     C          -0.144255           
         C40       1.0000    0.00900   0.15560   0.60290   Biso      1.000     C          -0.014252           
         C41       1.0000    0.15130   0.41990   0.88750   Biso      1.000     C          -0.162528           
         C42       1.0000    0.11720   0.83990   0.37660   Biso      1.000     C          -0.106217           
         C43       1.0000    0.27820   0.52040   0.77190   Biso      1.000     C          -0.11079000000000001          
         C44       1.0000    0.76220   0.36590   0.20000   Biso      1.000     C          -0.017688           
         C45       1.0000    0.71620   0.25000   0.24610   Biso      1.000     C          0.6371760000000001  
         C46       1.0000    0.15480   0.63820   0.87050   Biso      1.000     C          -0.175062           
         C47       1.0000    0.19480   0.83730   0.43790   Biso      1.000     C          0.006456  
         C48       1.0000    0.90490   0.92500   0.93480   Biso      1.000     C          0.6916720000000001  
         H1        1.0000    0.12403   0.34831   0.91793   Biso      1.000     H          0.13009300000000001           
         H2        1.0000    0.34014   0.04223   0.06716   Biso      1.000     H          0.13531600000000002           
         H3        1.0000    0.14452   0.15435   0.50508   Biso      1.000     H          0.106574  
         H4        1.0000    0.80095   0.16432   0.43771   Biso      1.000     H          0.145337  
         H5        1.0000    0.33476   0.51632   0.72426   Biso      1.000     H          0.12282799999999999           
         H6        1.0000    0.84986   0.16147   0.67922   Biso      1.000     H          0.134481  
         H7        1.0000    0.12746   0.71236   0.88984   Biso      1.000     H          0.11615999999999999           
         H8        1.0000    0.36269   0.09893   0.30045   Biso      1.000     H          0.11393099999999999           
         H9        1.0000    0.97409   0.87494   0.78217   Biso      1.000     H          0.132927  
         H10       1.0000    0.02591   0.12506   0.21783   Biso      1.000     H          0.132928  
         H11       1.0000    0.85548   0.84565   0.49492   Biso      1.000     H          0.106575  
         H12       1.0000    0.15014   0.83853   0.32078   Biso      1.000     H          0.134481  
         H13       1.0000    0.19905   0.83568   0.56229   Biso      1.000     H          0.145337  
         H14       1.0000    0.65986   0.95777   0.93284   Biso      1.000     H          0.13531600000000002           
         H15       1.0000    0.87597   0.65169   0.08207   Biso      1.000     H          0.13009500000000002           
         H16       1.0000    0.63731   0.90107   0.69955   Biso      1.000     H          0.11393099999999999           
         H17       1.0000    0.66524   0.48368   0.27574   Biso      1.000     H          0.12282799999999999           
         H18       1.0000    0.87254   0.28764   0.11016   Biso      1.000     H          0.116159  
         N1        1.0000    0.02160   0.15190   0.36960   Biso      1.000     N          -0.10980899999999999          
         N2        1.0000    0.86200   0.85930   0.64540   Biso      1.000     N          -0.139172           
         N3        1.0000    0.97840   0.84810   0.63040   Biso      1.000     N          -0.10973800000000002          
         N4        1.0000    0.13800   0.14070   0.35460   Biso      1.000     N          -0.139102           
         N5        1.0000    0.02500   0.54490   0.98540   Biso      1.000     N          -0.124267           
         N6        1.0000    0.97500   0.45510   0.01460   Biso      1.000     N          -0.124173           
         O1        1.0000    0.42470   0.00530   0.75870   Biso      1.000     O          -0.783702           
         O2        1.0000    0.02070   0.92410   0.91540   Biso      1.000     O          -0.714334           
         O3        1.0000    0.38800   0.88140   0.45980   Biso      1.000     O          -0.727554           
         O4        1.0000    0.37940   0.81500   0.34350   Biso      1.000     O          -0.621529           
         O5        1.0000    0.85160   0.93200   0.00760   Biso      1.000     O          -0.698558           
         O6        1.0000    0.93520   0.90280   0.25090   Biso      1.000     O          -0.602876           
         O7        1.0000    0.64090   0.71290   0.27350   Biso      1.000     O          -0.695175           
         O8        1.0000    0.77590   0.79510   0.17470   Biso      1.000     O          -0.672655           
         O9        1.0000    0.42900   0.98110   0.89780   Biso      1.000     O          -0.610513           
         O10       1.0000    0.57100   0.01890   0.10220   Biso      1.000     O          -0.610513           
         O11       1.0000    0.35820   0.74550   0.68950   Biso      1.000     O          -0.587133           
         O12       1.0000    0.64180   0.25450   0.31050   Biso      1.000     O          -0.587134           
         O13       1.0000    0.97930   0.07590   0.08460   Biso      1.000     O          -0.714335           
         O14       1.0000    0.14840   0.06800   0.99240   Biso      1.000     O          -0.698558           
         O15       1.0000    0.24150   0.84670   0.78240   Biso      1.000     O          -0.759103           
         O16       1.0000    0.61200   0.11860   0.54020   Biso      1.000     O          -0.727554           
         O17       1.0000    0.62060   0.18500   0.65650   Biso      1.000     O          -0.62153  
         O18       1.0000    0.79710   0.83270   0.35400   Biso      1.000     O          -0.769791           
         O19       1.0000    0.20290   0.16730   0.64600   Biso      1.000     O          -0.769791           
         O20       1.0000    0.75850   0.15330   0.21760   Biso      1.000     O          -0.759103           
         O21       1.0000    0.06480   0.09720   0.74910   Biso      1.000     O          -0.602877           
         O22       1.0000    0.35910   0.28710   0.72650   Biso      1.000     O          -0.695175           
         O23       1.0000    0.22410   0.20490   0.82530   Biso      1.000     O          -0.672655           
         O24       1.0000    0.57530   0.99470   0.24130   Biso      1.000     O          -0.783702           
         Sm1       1.0000    0.58754   0.83987   0.37340   Biso      1.000     Sm          2.147537  
         Sm2       1.0000    0.79283   0.00495   0.13442   Biso      1.000     Sm          2.199719  
         Sm3       1.0000    0.20717   0.99505   0.86558   Biso      1.000     Sm          2.199719  
         Sm4       1.0000    0.41246   0.16013   0.62660   Biso      1.000     Sm          2.147536 