
##########################################################################
#               Crystallographic Information Format file
#               Produced by PyCifRW module
#
#  This is a CIF file.  CIF has been adopted by the International
#  Union of Crystallography as the standard for data archiving and
#  transmission.
#
#  For information on this file format, follow the CIF links at
#  http://www.iucr.org
##########################################################################

data_image0

_cell_length_a                          7.6112
_cell_length_b                          11.927
_cell_length_c                          12.13
_cell_angle_alpha                       67.602
_cell_angle_beta                        89.92
_cell_angle_gamma                       80.498
_symmetry_space_group_name_H-M          'P 1'
_symmetry_int_tables_number             1
loop_
  _symmetry_equiv_pos_as_xyz
         'x, y, z' 
loop_
  _atom_site_label
  _atom_site_occupancy
  _atom_site_fract_x
  _atom_site_fract_y
  _atom_site_fract_z
  _atom_site_thermal_displace_type
  _atom_site_B_iso_or_equiv
  _atom_site_type_symbol
  _atom_site_charge
         C1        1.0000    0.10700   0.82800   0.97860   Biso      1.000     C          -0.311979           
         C2        1.0000    0.64000   0.07270   0.14640   Biso      1.000     C          0.687656  
         C3        1.0000    0.29400   0.45500   0.49170   Biso      1.000     C          -0.311183           
         C4        1.0000    0.17800   0.35620   0.54880   Biso      1.000     C          0.690385  
         C5        1.0000    0.13700   0.85720   0.09050   Biso      1.000     C          0.7329060000000001  
         C6        1.0000    0.33100   0.63600   0.32310   Biso      1.000     C          0.709183  
         C7        1.0000    0.72600   0.18820   0.08690   Biso      1.000     C          -0.29958  
         C8        1.0000    0.14800   0.07400   0.29940   Biso      1.000     C          0.717526  
         C9        1.0000    0.39500   0.17000   0.35160   Biso      1.000     C          -0.319243           
         C10       1.0000    0.89300   0.17200   0.02140   Biso      1.000     C          -0.311979           
         C11       1.0000    0.22400   0.19040   0.27070   Biso      1.000     C          -0.314508           
         C12       1.0000    0.36500   0.13930   0.47960   Biso      1.000     C          0.7334109999999999  
         C13       1.0000    0.63500   0.86070   0.52040   Biso      1.000     C          0.7334109999999999  
         C14       1.0000    0.77600   0.80960   0.72930   Biso      1.000     C          -0.314508           
         C15       1.0000    0.23400   0.53190   0.35910   Biso      1.000     C          -0.315734           
         C16       1.0000    0.36000   0.92730   0.85360   Biso      1.000     C          0.687656  
         C17       1.0000    0.76600   0.46810   0.64090   Biso      1.000     C          -0.315734           
         C18       1.0000    0.60500   0.83000   0.64840   Biso      1.000     C          -0.319243           
         C19       1.0000    0.70600   0.54500   0.50830   Biso      1.000     C          -0.311183           
         C20       1.0000    0.82200   0.64380   0.45120   Biso      1.000     C          0.690385  
         C21       1.0000    0.86300   0.14280   0.90950   Biso      1.000     C          0.7329060000000001  
         C22       1.0000    0.85200   0.92600   0.70060   Biso      1.000     C          0.717526  
         C23       1.0000    0.27400   0.81180   0.91310   Biso      1.000     C          -0.29958  
         C24       1.0000    0.66900   0.36400   0.67690   Biso      1.000     C          0.709183  
         H1        1.0000    0.86550   0.74710   0.71930   Biso      1.000     H          0.140127  
         H2        1.0000    0.58210   0.58450   0.50190   Biso      1.000     H          0.142251  
         H3        1.0000    0.71370   0.49080   0.46510   Biso      1.000     H          0.160706  
         H4        1.0000    0.75550   0.21700   0.14810   Biso      1.000     H          0.14293   
         H5        1.0000    0.55340   0.75530   0.67810   Biso      1.000     H          0.14265799999999998           
         H6        1.0000    0.98110   0.10650   0.07670   Biso      1.000     H          0.140605  
         H7        1.0000    0.51800   0.89560   0.65560   Biso      1.000     H          0.14516400000000002           
         H8        1.0000    0.94260   0.24760   0.99690   Biso      1.000     H          0.140171  
         H9        1.0000    0.74660   0.77960   0.81230   Biso      1.000     H          0.149977  
         H10       1.0000    0.73520   0.51690   0.68870   Biso      1.000     H          0.14463900000000002           
         H11       1.0000    0.63740   0.25240   0.03050   Biso      1.000     H          0.129829  
         H12       1.0000    0.10640   0.56100   0.34930   Biso      1.000     H          0.14783   
         H13       1.0000    0.89360   0.43900   0.65070   Biso      1.000     H          0.14783   
         H14       1.0000    0.41790   0.41550   0.49810   Biso      1.000     H          0.142251  
         H15       1.0000    0.36260   0.74760   0.96950   Biso      1.000     H          0.129828  
         H16       1.0000    0.24450   0.78300   0.85190   Biso      1.000     H          0.14293   
         H17       1.0000    0.01890   0.89350   0.92330   Biso      1.000     H          0.140605  
         H18       1.0000    0.05740   0.75240   0.00310   Biso      1.000     H          0.140171  
         H19       1.0000    0.26480   0.48310   0.31130   Biso      1.000     H          0.14463900000000002           
         H20       1.0000    0.25340   0.22040   0.18770   Biso      1.000     H          0.149977  
         H21       1.0000    0.48200   0.10440   0.34440   Biso      1.000     H          0.14516400000000002           
         H22       1.0000    0.44660   0.24470   0.32190   Biso      1.000     H          0.14265899999999998           
         H23       1.0000    0.28630   0.50920   0.53490   Biso      1.000     H          0.160706  
         H24       1.0000    0.13450   0.25290   0.28070   Biso      1.000     H          0.140127  
         Ho1       1.0000    0.99247   0.85483   0.35481   Biso      1.000     Ho          2.109583  
         Ho2       1.0000    0.49254   0.85507   0.25380   Biso      1.000     Ho          2.092898  
         Ho3       1.0000    0.50746   0.14493   0.74620   Biso      1.000     Ho          2.092898  
         Ho4       1.0000    0.00753   0.14517   0.64519   Biso      1.000     Ho          2.109583  
         O1        1.0000    0.46100   0.64530   0.26210   Biso      1.000     O          -0.604721           
         O2        1.0000    0.27350   0.72500   0.35910   Biso      1.000     O          -0.8175640000000001           
         O3        1.0000    0.28270   0.88860   0.10010   Biso      1.000     O          -0.690647           
         O4        1.0000    0.21880   0.10650   0.51600   Biso      1.000     O          -0.703643           
         O5        1.0000    0.48560   0.14830   0.53980   Biso      1.000     O          -0.662361           
         O6        1.0000    0.23640   0.97690   0.28800   Biso      1.000     O          -0.7896880000000001           
         O7        1.0000    0.98000   0.15480   0.83920   Biso      1.000     O          -0.665894           
         O8        1.0000    0.98920   0.06590   0.32880   Biso      1.000     O          -0.6263310000000001           
         O9        1.0000    0.03750   0.34970   0.49450   Biso      1.000     O          -0.6117060000000001           
         O10       1.0000    0.23110   0.27300   0.65090   Biso      1.000     O          -0.773421           
         O11       1.0000    0.76890   0.72700   0.34910   Biso      1.000     O          -0.773421           
         O12       1.0000    0.96250   0.65030   0.50550   Biso      1.000     O          -0.6117060000000001           
         O13       1.0000    0.53900   0.35470   0.73790   Biso      1.000     O          -0.604721           
         O14       1.0000    0.72650   0.27500   0.64090   Biso      1.000     O          -0.8175640000000001           
         O15       1.0000    0.71730   0.11140   0.89990   Biso      1.000     O          -0.690647           
         O16       1.0000    0.78120   0.89350   0.48400   Biso      1.000     O          -0.703643           
         O17       1.0000    0.51440   0.85170   0.46020   Biso      1.000     O          -0.662361           
         O18       1.0000    0.76360   0.02310   0.71200   Biso      1.000     O          -0.7896890000000001           
         O19       1.0000    0.02000   0.84520   0.16080   Biso      1.000     O          -0.665894           
         O20       1.0000    0.01080   0.93410   0.67120   Biso      1.000     O          -0.6263310000000001           
         O21       1.0000    0.48470   0.07020   0.11600   Biso      1.000     O          -0.597809           
         O22       1.0000    0.73980   0.97650   0.22680   Biso      1.000     O          -0.7844220000000001           
         O23       1.0000    0.26020   0.02350   0.77320   Biso      1.000     O          -0.7844220000000001           
         O24       1.0000    0.51530   0.92980   0.88400   Biso      1.000     O          -0.597809 