
##########################################################################
#               Crystallographic Information Format file
#               Produced by PyCifRW module
#
#  This is a CIF file.  CIF has been adopted by the International
#  Union of Crystallography as the standard for data archiving and
#  transmission.
#
#  For information on this file format, follow the CIF links at
#  http://www.iucr.org
##########################################################################

data_image0

_cell_length_a                          14.207
_cell_length_b                          14.564
_cell_length_c                          26.22
_cell_angle_alpha                       90
_cell_angle_beta                        90
_cell_angle_gamma                       107.08
_symmetry_space_group_name_H-M          'P 1'
_symmetry_int_tables_number             1
loop_
  _symmetry_equiv_pos_as_xyz
         'x, y, z' 
loop_
  _atom_site_label
  _atom_site_occupancy
  _atom_site_fract_x
  _atom_site_fract_y
  _atom_site_fract_z
  _atom_site_thermal_displace_type
  _atom_site_B_iso_or_equiv
  _atom_site_type_symbol
  _atom_site_charge
         C1        1.0000    0.01280   0.74980   0.35550   Biso      1.000     C          0.072208  
         C2        1.0000    0.19480   0.58320   0.63800   Biso      1.000     C          0.538599  
         C3        1.0000    0.37390   0.60720   0.65350   Biso      1.000     C          -0.161152           
         C4        1.0000    0.30250   0.63470   0.63050   Biso      1.000     C          0.021489  
         C5        1.0000    0.33020   0.72070   0.59870   Biso      1.000     C          -0.118653           
         C6        1.0000    0.42620   0.76930   0.59250   Biso      1.000     C          0.00145   
         C7        1.0000    0.49980   0.74240   0.61740   Biso      1.000     C          -0.175203           
         C8        1.0000    0.47160   0.65460   0.64900   Biso      1.000     C          0.06059   
         C9        1.0000    0.53290   0.56870   0.71660   Biso      1.000     C          0.020488  
         C10       1.0000    0.55190   0.62500   0.67390   Biso      1.000     C          0.047513  
         C11       1.0000    0.64650   0.64770   0.65430   Biso      1.000     C          -0.087591           
         C12       1.0000    0.45190   0.85630   0.55790   Biso      1.000     C          0.600999  
         C13       1.0000    0.71930   0.62030   0.67880   Biso      1.000     C          -0.118285           
         C14       1.0000    0.91410   0.84740   0.38030   Biso      1.000     C          -0.099246           
         C15       1.0000    0.82620   0.77870   0.36170   Biso      1.000     C          0.039927  
         C16       1.0000    0.84420   0.69420   0.34260   Biso      1.000     C          0.053605  
         C17       1.0000    0.72880   0.78780   0.36220   Biso      1.000     C          0.073278  
         C18       1.0000    0.69190   0.84060   0.39800   Biso      1.000     C          -0.152777           
         C19       1.0000    0.59930   0.84620   0.39680   Biso      1.000     C          -0.009159           
         C20       1.0000    0.53000   0.79690   0.35910   Biso      1.000     C          -0.131119           
         C21       1.0000    0.56890   0.74590   0.32240   Biso      1.000     C          0.002122  
         C22       1.0000    0.66150   0.74270   0.32370   Biso      1.000     C          -0.151222           
         C23       1.0000    0.55750   0.90440   0.43500   Biso      1.000     C          0.599345  
         C24       1.0000    0.69290   0.55880   0.72210   Biso      1.000     C          0.086879  
         C25       1.0000    0.49130   0.68860   0.28190   Biso      1.000     C          0.550167  
         C26       1.0000    0.48720   0.25020   0.85550   Biso      1.000     C          0.072207  
         C27       1.0000    0.58590   0.15260   0.88030   Biso      1.000     C          -0.099245           
         C28       1.0000    0.30520   0.41680   0.13800   Biso      1.000     C          0.538598  
         C29       1.0000    0.12610   0.39280   0.15350   Biso      1.000     C          -0.161153           
         C30       1.0000    0.19750   0.36530   0.13050   Biso      1.000     C          0.021488  
         C31       1.0000    0.16980   0.27930   0.09870   Biso      1.000     C          -0.118653           
         C32       1.0000    0.07380   0.23070   0.09250   Biso      1.000     C          0.001447  
         C33       1.0000    0.00020   0.25760   0.11740   Biso      1.000     C          -0.175203           
         C34       1.0000    0.02840   0.34540   0.14900   Biso      1.000     C          0.060589  
         C35       1.0000    0.96710   0.43130   0.21660   Biso      1.000     C          0.020489  
         C36       1.0000    0.94810   0.37500   0.17390   Biso      1.000     C          0.047513  
         C37       1.0000    0.85350   0.35230   0.15430   Biso      1.000     C          -0.08759  
         C38       1.0000    0.49580   0.16660   0.87590   Biso      1.000     C          -0.116996           
         C39       1.0000    0.78070   0.37970   0.17880   Biso      1.000     C          -0.118285           
         C40       1.0000    0.00870   0.31140   0.78190   Biso      1.000     C          0.550164  
         C41       1.0000    0.94250   0.09560   0.93500   Biso      1.000     C          0.599346  
         C42       1.0000    0.83850   0.25730   0.82370   Biso      1.000     C          -0.151258           
         C43       1.0000    0.93110   0.25410   0.82240   Biso      1.000     C          0.002152  
         C44       1.0000    0.97000   0.20310   0.85910   Biso      1.000     C          -0.131118           
         C45       1.0000    0.90070   0.15380   0.89680   Biso      1.000     C          -0.009188           
         C46       1.0000    0.80810   0.15940   0.89800   Biso      1.000     C          -0.152749           
         C47       1.0000    0.77120   0.21220   0.86220   Biso      1.000     C          0.073279  
         C48       1.0000    0.65580   0.30580   0.84260   Biso      1.000     C          0.053606  
         C49       1.0000    0.67380   0.22130   0.86170   Biso      1.000     C          0.039927  
         C50       1.0000    0.80710   0.44120   0.22210   Biso      1.000     C          0.086879  
         C51       1.0000    0.30710   0.44120   0.27790   Biso      1.000     C          0.086913  
         C52       1.0000    0.28070   0.37970   0.32120   Biso      1.000     C          -0.118329           
         C53       1.0000    0.35350   0.35230   0.34570   Biso      1.000     C          -0.087623           
         C54       1.0000    0.03290   0.56870   0.78340   Biso      1.000     C          0.020517  
         C55       1.0000    0.97160   0.65460   0.85100   Biso      1.000     C          0.060651  
         C56       1.0000    0.99980   0.74240   0.88260   Biso      1.000     C          -0.175151           
         C57       1.0000    0.92620   0.76930   0.90750   Biso      1.000     C          0.001444  
         C58       1.0000    0.83020   0.72070   0.90130   Biso      1.000     C          -0.118656           
         C59       1.0000    0.80250   0.63470   0.86950   Biso      1.000     C          0.021456  
         C60       1.0000    0.87390   0.60720   0.84650   Biso      1.000     C          -0.161145           
         C61       1.0000    0.69480   0.58320   0.86200   Biso      1.000     C          0.538597  
         C62       1.0000    0.95190   0.85630   0.94210   Biso      1.000     C          0.600986  
         C63       1.0000    0.98720   0.25020   0.64450   Biso      1.000     C          0.07227   
         C64       1.0000    0.05190   0.62500   0.82610   Biso      1.000     C          0.047463  
         C65       1.0000    0.99580   0.16660   0.62410   Biso      1.000     C          -0.117056           
         C66       1.0000    0.17380   0.22130   0.63830   Biso      1.000     C          0.03984   
         C67       1.0000    0.15580   0.30580   0.65740   Biso      1.000     C          0.053646  
         C68       1.0000    0.27120   0.21220   0.63780   Biso      1.000     C          0.073383  
         C69       1.0000    0.30810   0.15940   0.60200   Biso      1.000     C          -0.152753           
         C70       1.0000    0.40070   0.15380   0.60320   Biso      1.000     C          -0.0091   
         C71       1.0000    0.47000   0.20310   0.64090   Biso      1.000     C          -0.131145           
         C72       1.0000    0.43110   0.25410   0.67760   Biso      1.000     C          0.002179  
         C73       1.0000    0.33850   0.25730   0.67630   Biso      1.000     C          -0.151237           
         C74       1.0000    0.44250   0.09560   0.56500   Biso      1.000     C          0.599326  
         C75       1.0000    0.50870   0.31140   0.71810   Biso      1.000     C          0.550148  
         C76       1.0000    0.08590   0.15260   0.61970   Biso      1.000     C          -0.099252           
         C77       1.0000    0.14650   0.64770   0.84570   Biso      1.000     C          -0.087627           
         C78       1.0000    0.21930   0.62030   0.82120   Biso      1.000     C          -0.118325           
         C79       1.0000    0.19290   0.55880   0.77790   Biso      1.000     C          0.086912  
         C80       1.0000    0.44810   0.37500   0.32610   Biso      1.000     C          0.047459  
         C81       1.0000    0.46710   0.43130   0.28340   Biso      1.000     C          0.02052   
         C82       1.0000    0.52840   0.34540   0.35100   Biso      1.000     C          0.060652  
         C83       1.0000    0.50020   0.25760   0.38260   Biso      1.000     C          -0.17515  
         C84       1.0000    0.57380   0.23070   0.40750   Biso      1.000     C          0.001447  
         C85       1.0000    0.66980   0.27930   0.40130   Biso      1.000     C          -0.118657           
         C86       1.0000    0.69750   0.36530   0.36950   Biso      1.000     C          0.021458  
         C87       1.0000    0.62610   0.39280   0.34650   Biso      1.000     C          -0.161146           
         C88       1.0000    0.80520   0.41680   0.36200   Biso      1.000     C          0.538597  
         C89       1.0000    0.54810   0.14370   0.44210   Biso      1.000     C          0.600987  
         C90       1.0000    0.51280   0.74980   0.14450   Biso      1.000     C          0.07227   
         C91       1.0000    0.50420   0.83340   0.12410   Biso      1.000     C          -0.117055           
         C92       1.0000    0.41410   0.84740   0.11970   Biso      1.000     C          -0.099252           
         C93       1.0000    0.32620   0.77870   0.13830   Biso      1.000     C          0.03984   
         C94       1.0000    0.34420   0.69420   0.15740   Biso      1.000     C          0.053645  
         C95       1.0000    0.22880   0.78780   0.13780   Biso      1.000     C          0.073382  
         C96       1.0000    0.19190   0.84060   0.10200   Biso      1.000     C          -0.152753           
         C97       1.0000    0.09930   0.84620   0.10320   Biso      1.000     C          -0.009103           
         C98       1.0000    0.03000   0.79690   0.14090   Biso      1.000     C          -0.131144           
         C99       1.0000    0.06890   0.74590   0.17760   Biso      1.000     C          0.002177  
         C100      1.0000    0.16150   0.74270   0.17630   Biso      1.000     C          -0.151236           
         C101      1.0000    0.05750   0.90440   0.06500   Biso      1.000     C          0.599326  
         C102      1.0000    0.99130   0.68860   0.21810   Biso      1.000     C          0.550149  
         C103      1.0000    0.04810   0.14370   0.05790   Biso      1.000     C          0.600999  
         C104      1.0000    0.00420   0.83340   0.37590   Biso      1.000     C          -0.116995           
         Cu1       1.0000    0.56376   0.43549   0.79726   Biso      1.000     Cu          0.739321  
         Cu2       1.0000    0.41098   0.97273   0.47975   Biso      1.000     Cu          0.858186  
         Cu3       1.0000    0.93624   0.56451   0.29726   Biso      1.000     Cu          0.739319  
         Cu4       1.0000    0.08902   0.02727   0.97975   Biso      1.000     Cu          0.858197  
         Cu5       1.0000    0.43624   0.56451   0.20274   Biso      1.000     Cu          0.739128  
         Cu6       1.0000    0.58902   0.02727   0.52025   Biso      1.000     Cu          0.859002  
         Cu7       1.0000    0.06376   0.43549   0.70274   Biso      1.000     Cu          0.739126  
         Cu8       1.0000    0.91098   0.97273   0.02025   Biso      1.000     Cu          0.858997  
         H1        1.0000    0.31670   0.29140   0.70240   Biso      1.000     H          0.126339  
         H2        1.0000    0.75940   0.46480   0.23860   Biso      1.000     H          0.104949  
         H3        1.0000    0.71450   0.35830   0.16720   Biso      1.000     H          0.131755  
         H4        1.0000    0.83880   0.31720   0.12330   Biso      1.000     H          0.121235  
         H5        1.0000    0.03130   0.44710   0.23100   Biso      1.000     H          0.102919  
         H6        1.0000    0.07530   0.73910   0.35250   Biso      1.000     H          0.110448  
         H7        1.0000    0.21910   0.25770   0.08240   Biso      1.000     H          0.135708  
         H8        1.0000    0.14460   0.44880   0.17420   Biso      1.000     H          0.118156  
         H9        1.0000    0.81670   0.29140   0.79760   Biso      1.000     H          0.126305  
         H10       1.0000    0.93320   0.22060   0.11420   Biso      1.000     H          0.138763  
         H11       1.0000    0.03650   0.20190   0.85860   Biso      1.000     H          0.14294   
         H12       1.0000    0.43870   0.11840   0.88710   Biso      1.000     H          0.124575  
         H13       1.0000    0.71060   0.35660   0.83140   Biso      1.000     H          0.102911  
         H14       1.0000    0.59090   0.09550   0.89610   Biso      1.000     H          0.118836  
         H15       1.0000    0.06130   0.88160   0.38710   Biso      1.000     H          0.124574  
         H16       1.0000    0.42470   0.26090   0.85250   Biso      1.000     H          0.110448  
         H17       1.0000    0.35540   0.55120   0.67420   Biso      1.000     H          0.118158  
         H18       1.0000    0.28090   0.74230   0.58240   Biso      1.000     H          0.135709  
         H19       1.0000    0.46870   0.55290   0.73100   Biso      1.000     H          0.102919  
         H20       1.0000    0.66120   0.68280   0.62330   Biso      1.000     H          0.121231  
         H21       1.0000    0.78550   0.64170   0.66720   Biso      1.000     H          0.131753  
         H22       1.0000    0.74060   0.53520   0.73860   Biso      1.000     H          0.104951  
         H23       1.0000    0.76540   0.12610   0.92430   Biso      1.000     H          0.123297  
         H24       1.0000    0.90910   0.90450   0.39610   Biso      1.000     H          0.118835  
         H25       1.0000    0.56680   0.77940   0.61420   Biso      1.000     H          0.138765  
         H26       1.0000    0.73460   0.87390   0.42430   Biso      1.000     H          0.1233    
         H27       1.0000    0.53650   0.20190   0.64140   Biso      1.000     H          0.142955  
         H28       1.0000    0.26540   0.12610   0.57570   Biso      1.000     H          0.123332  
         H29       1.0000    0.21060   0.35660   0.66860   Biso      1.000     H          0.102883  
         H30       1.0000    0.09090   0.09550   0.60390   Biso      1.000     H          0.118816  
         H31       1.0000    0.93870   0.11840   0.61290   Biso      1.000     H          0.124546  
         H32       1.0000    0.92470   0.26090   0.64750   Biso      1.000     H          0.110426  
         H33       1.0000    0.85540   0.55120   0.82580   Biso      1.000     H          0.118171  
         H34       1.0000    0.78090   0.74230   0.91760   Biso      1.000     H          0.135712  
         H35       1.0000    0.06680   0.77940   0.88580   Biso      1.000     H          0.138785  
         H36       1.0000    0.96870   0.55290   0.76900   Biso      1.000     H          0.102889  
         H37       1.0000    0.16120   0.68280   0.87670   Biso      1.000     H          0.121219  
         H38       1.0000    0.28550   0.64170   0.83280   Biso      1.000     H          0.131727  
         H39       1.0000    0.24060   0.53520   0.76140   Biso      1.000     H          0.104933  
         H40       1.0000    0.96350   0.79810   0.14140   Biso      1.000     H          0.142954  
         H41       1.0000    0.18330   0.70860   0.20240   Biso      1.000     H          0.126337  
         H42       1.0000    0.43320   0.22060   0.38580   Biso      1.000     H          0.138786  
         H43       1.0000    0.46350   0.79810   0.35860   Biso      1.000     H          0.142941  
         H44       1.0000    0.68330   0.70860   0.29760   Biso      1.000     H          0.126306  
         H45       1.0000    0.25940   0.46480   0.26140   Biso      1.000     H          0.104935  
         H46       1.0000    0.21450   0.35830   0.33280   Biso      1.000     H          0.131725  
         H47       1.0000    0.33880   0.31720   0.37670   Biso      1.000     H          0.121216  
         H48       1.0000    0.53130   0.44710   0.26900   Biso      1.000     H          0.10289   
         H49       1.0000    0.23460   0.87390   0.07570   Biso      1.000     H          0.123331  
         H50       1.0000    0.78940   0.64340   0.33140   Biso      1.000     H          0.102911  
         H51       1.0000    0.64460   0.44880   0.32580   Biso      1.000     H          0.118173  
         H52       1.0000    0.57530   0.73910   0.14750   Biso      1.000     H          0.110426  
         H53       1.0000    0.56130   0.88160   0.11290   Biso      1.000     H          0.124548  
         H54       1.0000    0.40910   0.90450   0.10390   Biso      1.000     H          0.118815  
         H55       1.0000    0.28940   0.64340   0.16860   Biso      1.000     H          0.102883  
         H56       1.0000    0.71910   0.25770   0.41760   Biso      1.000     H          0.135712  
         N1        1.0000    0.06970   0.31740   0.66040   Biso      1.000     N          -0.185279           
         N2        1.0000    0.10060   0.53500   0.76100   Biso      1.000     N          -0.195451           
         N3        1.0000    0.43030   0.68260   0.16040   Biso      1.000     N          -0.18528  
         N4        1.0000    0.39940   0.46500   0.26100   Biso      1.000     N          -0.195451           
         N5        1.0000    0.89940   0.46500   0.23900   Biso      1.000     N          -0.195459           
         N6        1.0000    0.56970   0.31740   0.83960   Biso      1.000     N          -0.18522  
         N7        1.0000    0.60060   0.53500   0.73900   Biso      1.000     N          -0.195459           
         N8        1.0000    0.93030   0.68260   0.33960   Biso      1.000     N          -0.185218           
         O1        1.0000    0.87420   0.41320   0.39350   Biso      1.000     O          -0.572359           
         O2        1.0000    0.82010   0.49070   0.33305   Biso      1.000     O          -0.571844           
         O3        1.0000    0.61310   0.13370   0.47227   Biso      1.000     O          -0.51926  
         O4        1.0000    0.46120   0.08870   0.43824   Biso      1.000     O          -0.54137  
         O5        1.0000    0.12400   0.94930   0.03289   Biso      1.000     O          -0.548847           
         O6        1.0000    0.97200   0.90320   0.06692   Biso      1.000     O          -0.499869           
         O7        1.0000    0.03290   0.64730   0.25159   Biso      1.000     O          -0.567661           
         O8        1.0000    0.62580   0.58680   0.89350   Biso      1.000     O          -0.572356           
         O9        1.0000    0.67990   0.50930   0.83305   Biso      1.000     O          -0.571843           
         O10       1.0000    0.88690   0.86630   0.97227   Biso      1.000     O          -0.519261           
         O11       1.0000    0.03880   0.91130   0.93824   Biso      1.000     O          -0.541372           
         O12       1.0000    0.37600   0.05070   0.53289   Biso      1.000     O          -0.548845           
         O13       1.0000    0.52800   0.09680   0.56692   Biso      1.000     O          -0.499868           
         O14       1.0000    0.90330   0.68460   0.21741   Biso      1.000     O          -0.545359           
         O15       1.0000    0.53290   0.64730   0.24841   Biso      1.000     O          -0.568029           
         O16       1.0000    0.47200   0.90320   0.43308   Biso      1.000     O          -0.499935           
         O17       1.0000    0.62400   0.94930   0.46711   Biso      1.000     O          -0.549006           
         O18       1.0000    0.96120   0.08870   0.06176   Biso      1.000     O          -0.541479           
         O19       1.0000    0.11310   0.13370   0.02773   Biso      1.000     O          -0.519343           
         O20       1.0000    0.32010   0.49070   0.16695   Biso      1.000     O          -0.572034           
         O21       1.0000    0.37420   0.41320   0.10650   Biso      1.000     O          -0.572461           
         O22       1.0000    0.96710   0.35270   0.74841   Biso      1.000     O          -0.568027           
         O23       1.0000    0.09670   0.31540   0.78259   Biso      1.000     O          -0.545533           
         O24       1.0000    0.02800   0.09680   0.93308   Biso      1.000     O          -0.499936           
         O25       1.0000    0.87600   0.05070   0.96711   Biso      1.000     O          -0.549008           
         O26       1.0000    0.53880   0.91130   0.56176   Biso      1.000     O          -0.541478           
         O27       1.0000    0.38690   0.86630   0.52773   Biso      1.000     O          -0.51934  
         O28       1.0000    0.17990   0.50930   0.66695   Biso      1.000     O          -0.572033           
         O29       1.0000    0.12580   0.58680   0.60650   Biso      1.000     O          -0.572463           
         O30       1.0000    0.59670   0.31540   0.71741   Biso      1.000     O          -0.545358           
         O31       1.0000    0.40330   0.68460   0.28259   Biso      1.000     O          -0.545531           
         O32       1.0000    0.46710   0.35270   0.75159   Biso      1.000     O          -0.567659 