
##########################################################################
#               Crystallographic Information Format file
#               Produced by PyCifRW module
#
#  This is a CIF file.  CIF has been adopted by the International
#  Union of Crystallography as the standard for data archiving and
#  transmission.
#
#  For information on this file format, follow the CIF links at
#  http://www.iucr.org
##########################################################################

data_image0

_cell_length_a                          10.292
_cell_length_b                          10.292
_cell_length_c                          9.629
_cell_angle_alpha                       90
_cell_angle_beta                        90
_cell_angle_gamma                       90
_symmetry_space_group_name_H-M          'P 1'
_symmetry_int_tables_number             1
loop_
  _symmetry_equiv_pos_as_xyz
         'x, y, z' 
loop_
  _atom_site_label
  _atom_site_occupancy
  _atom_site_fract_x
  _atom_site_fract_y
  _atom_site_fract_z
  _atom_site_thermal_displace_type
  _atom_site_B_iso_or_equiv
  _atom_site_type_symbol
  _atom_site_charge
         Fe1       1.0000    0.63442   0.36558   0.63480   Biso      1.000     Fe          1.195504  
         Fe2       1.0000    0.36558   0.36558   0.36520   Biso      1.000     Fe          1.195493  
         Fe3       1.0000    0.63442   0.63442   0.36520   Biso      1.000     Fe          1.195501  
         Fe4       1.0000    0.86558   0.86558   0.86520   Biso      1.000     Fe          1.195499  
         Fe5       1.0000    0.13442   0.86558   0.13480   Biso      1.000     Fe          1.195499  
         Fe6       1.0000    0.13442   0.13442   0.86520   Biso      1.000     Fe          1.195511  
         Fe7       1.0000    0.36558   0.63442   0.63480   Biso      1.000     Fe          1.195506  
         Fe8       1.0000    0.86558   0.13442   0.13480   Biso      1.000     Fe          1.195507  
         O1        1.0000    0.20260   0.79740   0.95410   Biso      1.000     O          -0.724613           
         O2        1.0000    0.73820   0.26180   0.20500   Biso      1.000     O          -0.611568           
         O3        1.0000    0.70260   0.29740   0.45410   Biso      1.000     O          -0.724609           
         O4        1.0000    0.20260   0.20260   0.04590   Biso      1.000     O          -0.724614           
         O5        1.0000    0.76180   0.76180   0.29500   Biso      1.000     O          -0.611571           
         O6        1.0000    0.79740   0.79740   0.04590   Biso      1.000     O          -0.724611           
         O7        1.0000    0.29740   0.70260   0.45410   Biso      1.000     O          -0.724615           
         O8        1.0000    0.26180   0.26180   0.79500   Biso      1.000     O          -0.61157  
         O9        1.0000    0.29740   0.29740   0.54590   Biso      1.000     O          -0.724611           
         O10       1.0000    0.26180   0.73820   0.20500   Biso      1.000     O          -0.611567           
         O11       1.0000    0.79740   0.20260   0.95410   Biso      1.000     O          -0.724611           
         O12       1.0000    0.23820   0.76180   0.70500   Biso      1.000     O          -0.61157  
         O13       1.0000    0.52350   0.69510   0.72290   Biso      1.000     O          -0.714577           
         O14       1.0000    0.23820   0.23820   0.29500   Biso      1.000     O          -0.611566           
         O15       1.0000    0.73820   0.73820   0.79500   Biso      1.000     O          -0.611566           
         O16       1.0000    0.02350   0.19510   0.22290   Biso      1.000     O          -0.714573           
         O17       1.0000    0.47650   0.30490   0.72290   Biso      1.000     O          -0.714573           
         O18       1.0000    0.97650   0.80490   0.22290   Biso      1.000     O          -0.714576           
         O19       1.0000    0.69510   0.47650   0.27710   Biso      1.000     O          -0.714572           
         O20       1.0000    0.19510   0.97650   0.77710   Biso      1.000     O          -0.714579           
         O21       1.0000    0.30490   0.52350   0.27710   Biso      1.000     O          -0.714575           
         O22       1.0000    0.80490   0.02350   0.77710   Biso      1.000     O          -0.714573           
         O23       1.0000    0.47650   0.69510   0.27710   Biso      1.000     O          -0.714575           
         O24       1.0000    0.52350   0.30490   0.27710   Biso      1.000     O          -0.714574           
         O25       1.0000    0.97650   0.19510   0.77710   Biso      1.000     O          -0.714577           
         O26       1.0000    0.30490   0.47650   0.72290   Biso      1.000     O          -0.714577           
         O27       1.0000    0.80490   0.97650   0.22290   Biso      1.000     O          -0.714574           
         O28       1.0000    0.69510   0.52350   0.72290   Biso      1.000     O          -0.714572           
         O29       1.0000    0.19510   0.02350   0.22290   Biso      1.000     O          -0.714575           
         O30       1.0000    0.70260   0.70260   0.54590   Biso      1.000     O          -0.72461  
         O31       1.0000    0.02350   0.80490   0.77710   Biso      1.000     O          -0.714574           
         O32       1.0000    0.76180   0.23820   0.70500   Biso      1.000     O          -0.611571           
         P1        1.0000    0.66310   0.33690   0.30850   Biso      1.000     P          1.569824  
         P2        1.0000    0.16310   0.16310   0.19150   Biso      1.000     P          1.569826  
         P3        1.0000    0.83690   0.83690   0.19150   Biso      1.000     P          1.56983   
         P4        1.0000    0.16310   0.83690   0.80850   Biso      1.000     P          1.569833  
         P5        1.0000    0.33690   0.66310   0.30850   Biso      1.000     P          1.569832  
         P6        1.0000    0.33690   0.33690   0.69150   Biso      1.000     P          1.569828  
         P7        1.0000    0.66310   0.66310   0.69150   Biso      1.000     P          1.569826  
         P8        1.0000    0.83690   0.16310   0.80850   Biso      1.000     P          1.569826 