
##########################################################################
#               Crystallographic Information Format file
#               Produced by PyCifRW module
#
#  This is a CIF file.  CIF has been adopted by the International
#  Union of Crystallography as the standard for data archiving and
#  transmission.
#
#  For information on this file format, follow the CIF links at
#  http://www.iucr.org
##########################################################################

data_image0

_cell_length_a                          10.2941
_cell_length_b                          10.2941
_cell_length_c                          9.6484
_cell_angle_alpha                       90
_cell_angle_beta                        90
_cell_angle_gamma                       90
_symmetry_space_group_name_H-M          'P 1'
_symmetry_int_tables_number             1
loop_
  _symmetry_equiv_pos_as_xyz
         'x, y, z' 
loop_
  _atom_site_label
  _atom_site_occupancy
  _atom_site_fract_x
  _atom_site_fract_y
  _atom_site_fract_z
  _atom_site_thermal_displace_type
  _atom_site_B_iso_or_equiv
  _atom_site_type_symbol
  _atom_site_charge
         Fe1       1.0000    0.86687   0.86687   0.86778   Biso      1.000     Fe          1.214425  
         Fe2       1.0000    0.63313   0.63313   0.36778   Biso      1.000     Fe          1.214428  
         Fe3       1.0000    0.13313   0.86687   0.13222   Biso      1.000     Fe          1.214427  
         Fe4       1.0000    0.63313   0.36687   0.63222   Biso      1.000     Fe          1.214416  
         Fe5       1.0000    0.86687   0.13313   0.13222   Biso      1.000     Fe          1.21442   
         Fe6       1.0000    0.36687   0.63313   0.63222   Biso      1.000     Fe          1.214418  
         Fe7       1.0000    0.13313   0.13313   0.86778   Biso      1.000     Fe          1.214425  
         Fe8       1.0000    0.36687   0.36687   0.36778   Biso      1.000     Fe          1.214421  
         O1        1.0000    0.20080   0.20080   0.04840   Biso      1.000     O          -0.74134  
         O2        1.0000    0.74380   0.74380   0.79020   Biso      1.000     O          -0.618133           
         O3        1.0000    0.70080   0.70080   0.54840   Biso      1.000     O          -0.741341           
         O4        1.0000    0.29920   0.70080   0.45160   Biso      1.000     O          -0.74134  
         O5        1.0000    0.79920   0.79920   0.04840   Biso      1.000     O          -0.741341           
         O6        1.0000    0.25620   0.25620   0.79020   Biso      1.000     O          -0.618132           
         O7        1.0000    0.29920   0.29920   0.54840   Biso      1.000     O          -0.741339           
         O8        1.0000    0.20080   0.79920   0.95160   Biso      1.000     O          -0.74134  
         O9        1.0000    0.25620   0.74380   0.20980   Biso      1.000     O          -0.618132           
         O10       1.0000    0.79920   0.20080   0.95160   Biso      1.000     O          -0.741339           
         O11       1.0000    0.75620   0.24380   0.70980   Biso      1.000     O          -0.618129           
         O12       1.0000    0.70080   0.29920   0.45160   Biso      1.000     O          -0.741339           
         O13       1.0000    0.74380   0.25620   0.20980   Biso      1.000     O          -0.61813  
         O14       1.0000    0.24380   0.24380   0.29020   Biso      1.000     O          -0.618132           
         O15       1.0000    0.75620   0.75620   0.29020   Biso      1.000     O          -0.618133           
         O16       1.0000    0.30460   0.47700   0.71980   Biso      1.000     O          -0.72654  
         O17       1.0000    0.02300   0.80460   0.78020   Biso      1.000     O          -0.726542           
         O18       1.0000    0.80460   0.97700   0.21980   Biso      1.000     O          -0.72654  
         O19       1.0000    0.69540   0.52300   0.71980   Biso      1.000     O          -0.72654  
         O20       1.0000    0.19540   0.02300   0.21980   Biso      1.000     O          -0.726542           
         O21       1.0000    0.47700   0.69540   0.28020   Biso      1.000     O          -0.726542           
         O22       1.0000    0.97700   0.19540   0.78020   Biso      1.000     O          -0.726542           
         O23       1.0000    0.52300   0.30460   0.28020   Biso      1.000     O          -0.72654  
         O24       1.0000    0.97700   0.80460   0.21980   Biso      1.000     O          -0.726542           
         O25       1.0000    0.69540   0.47700   0.28020   Biso      1.000     O          -0.726542           
         O26       1.0000    0.24380   0.75620   0.70980   Biso      1.000     O          -0.61813  
         O27       1.0000    0.19540   0.97700   0.78020   Biso      1.000     O          -0.726542           
         O28       1.0000    0.30460   0.52300   0.28020   Biso      1.000     O          -0.72654  
         O29       1.0000    0.80460   0.02300   0.78020   Biso      1.000     O          -0.726542           
         O30       1.0000    0.52300   0.69540   0.71980   Biso      1.000     O          -0.72654  
         O31       1.0000    0.02300   0.19540   0.21980   Biso      1.000     O          -0.72654  
         O32       1.0000    0.47700   0.30460   0.71980   Biso      1.000     O          -0.72654  
         P1        1.0000    0.33631   0.66369   0.30710   Biso      1.000     P          1.598132  
         P2        1.0000    0.66369   0.66369   0.69290   Biso      1.000     P          1.598133  
         P3        1.0000    0.83631   0.16369   0.80710   Biso      1.000     P          1.598129  
         P4        1.0000    0.83631   0.83631   0.19290   Biso      1.000     P          1.598131  
         P5        1.0000    0.66369   0.33631   0.30710   Biso      1.000     P          1.59813   
         P6        1.0000    0.16369   0.83631   0.80710   Biso      1.000     P          1.59813   
         P7        1.0000    0.16369   0.16369   0.19290   Biso      1.000     P          1.598131  
         P8        1.0000    0.33631   0.33631   0.69290   Biso      1.000     P          1.598132 