
##########################################################################
#               Crystallographic Information Format file
#               Produced by PyCifRW module
#
#  This is a CIF file.  CIF has been adopted by the International
#  Union of Crystallography as the standard for data archiving and
#  transmission.
#
#  For information on this file format, follow the CIF links at
#  http://www.iucr.org
##########################################################################

data_image0

_cell_length_a                          10.266
_cell_length_b                          10.266
_cell_length_c                          9.6311
_cell_angle_alpha                       90
_cell_angle_beta                        90
_cell_angle_gamma                       90
_symmetry_space_group_name_H-M          'P 1'
_symmetry_int_tables_number             1
loop_
  _symmetry_equiv_pos_as_xyz
         'x, y, z' 
loop_
  _atom_site_label
  _atom_site_occupancy
  _atom_site_fract_x
  _atom_site_fract_y
  _atom_site_fract_z
  _atom_site_thermal_displace_type
  _atom_site_B_iso_or_equiv
  _atom_site_type_symbol
  _atom_site_charge
         Fe1       1.0000    0.36725   0.63275   0.86879   Biso      1.000     Fe          1.21458   
         Fe2       1.0000    0.63275   0.63275   0.13121   Biso      1.000     Fe          1.214576  
         Fe3       1.0000    0.36725   0.36725   0.13121   Biso      1.000     Fe          1.214565  
         Fe4       1.0000    0.13275   0.13275   0.63121   Biso      1.000     Fe          1.214564  
         Fe5       1.0000    0.86725   0.13275   0.36879   Biso      1.000     Fe          1.214573  
         Fe6       1.0000    0.86725   0.86725   0.63121   Biso      1.000     Fe          1.214578  
         Fe7       1.0000    0.63275   0.36725   0.86879   Biso      1.000     Fe          1.214579  
         Fe8       1.0000    0.13275   0.86725   0.36879   Biso      1.000     Fe          1.214577  
         O1        1.0000    0.80040   0.19960   0.54520   Biso      1.000     O          -0.734155           
         O2        1.0000    0.25640   0.74360   0.29260   Biso      1.000     O          -0.618981           
         O3        1.0000    0.30040   0.69960   0.04520   Biso      1.000     O          -0.734159           
         O4        1.0000    0.80040   0.80040   0.45480   Biso      1.000     O          -0.734158           
         O5        1.0000    0.24360   0.24360   0.20740   Biso      1.000     O          -0.618977           
         O6        1.0000    0.19960   0.19960   0.45480   Biso      1.000     O          -0.734151           
         O7        1.0000    0.69960   0.30040   0.04520   Biso      1.000     O          -0.734156           
         O8        1.0000    0.74360   0.74360   0.70740   Biso      1.000     O          -0.61898  
         O9        1.0000    0.69960   0.69960   0.95480   Biso      1.000     O          -0.734158           
         O10       1.0000    0.74360   0.25640   0.29260   Biso      1.000     O          -0.618981           
         O11       1.0000    0.19960   0.80040   0.54520   Biso      1.000     O          -0.734157           
         O12       1.0000    0.75640   0.24360   0.79260   Biso      1.000     O          -0.618981           
         O13       1.0000    0.30440   0.47790   0.77880   Biso      1.000     O          -0.722058           
         O14       1.0000    0.75640   0.75640   0.20740   Biso      1.000     O          -0.618979           
         O15       1.0000    0.25640   0.25640   0.70740   Biso      1.000     O          -0.618976           
         O16       1.0000    0.80440   0.97790   0.27880   Biso      1.000     O          -0.722056           
         O17       1.0000    0.69560   0.52210   0.77880   Biso      1.000     O          -0.722056           
         O18       1.0000    0.19560   0.02210   0.27880   Biso      1.000     O          -0.722058           
         O19       1.0000    0.47790   0.69560   0.22120   Biso      1.000     O          -0.722058           
         O20       1.0000    0.97790   0.19560   0.72120   Biso      1.000     O          -0.722051           
         O21       1.0000    0.52210   0.30440   0.22120   Biso      1.000     O          -0.722051           
         O22       1.0000    0.02210   0.80440   0.72120   Biso      1.000     O          -0.722059           
         O23       1.0000    0.69560   0.47790   0.22120   Biso      1.000     O          -0.722058           
         O24       1.0000    0.30440   0.52210   0.22120   Biso      1.000     O          -0.722051           
         O25       1.0000    0.19560   0.97790   0.72120   Biso      1.000     O          -0.722051           
         O26       1.0000    0.52210   0.69560   0.77880   Biso      1.000     O          -0.722059           
         O27       1.0000    0.02210   0.19560   0.27880   Biso      1.000     O          -0.722055           
         O28       1.0000    0.47790   0.30440   0.77880   Biso      1.000     O          -0.722056           
         O29       1.0000    0.97790   0.80440   0.27880   Biso      1.000     O          -0.722059           
         O30       1.0000    0.30040   0.30040   0.95480   Biso      1.000     O          -0.734151           
         O31       1.0000    0.80440   0.02210   0.72120   Biso      1.000     O          -0.722059           
         O32       1.0000    0.24360   0.75640   0.79260   Biso      1.000     O          -0.618981           
         P1        1.0000    0.33584   0.66416   0.19370   Biso      1.000     P          1.582672  
         P2        1.0000    0.83584   0.83584   0.30630   Biso      1.000     P          1.582673  
         P3        1.0000    0.16416   0.16416   0.30630   Biso      1.000     P          1.582675  
         P4        1.0000    0.83584   0.16416   0.69370   Biso      1.000     P          1.582674  
         P5        1.0000    0.66416   0.33584   0.19370   Biso      1.000     P          1.582676  
         P6        1.0000    0.66416   0.66416   0.80630   Biso      1.000     P          1.582672  
         P7        1.0000    0.33584   0.33584   0.80630   Biso      1.000     P          1.582672  
         P8        1.0000    0.16416   0.83584   0.69370   Biso      1.000     P          1.582671 