
##########################################################################
#               Crystallographic Information Format file
#               Produced by PyCifRW module
#
#  This is a CIF file.  CIF has been adopted by the International
#  Union of Crystallography as the standard for data archiving and
#  transmission.
#
#  For information on this file format, follow the CIF links at
#  http://www.iucr.org
##########################################################################

data_image0

_cell_length_a                          13.136
_cell_length_b                          14.0807
_cell_length_c                          14.0807
_cell_angle_alpha                       77.433
_cell_angle_beta                        62.1955
_cell_angle_gamma                       62.1956
_symmetry_space_group_name_H-M          'P 1'
_symmetry_int_tables_number             1
loop_
  _symmetry_equiv_pos_as_xyz
         'x, y, z' 
loop_
  _atom_site_label
  _atom_site_occupancy
  _atom_site_fract_x
  _atom_site_fract_y
  _atom_site_fract_z
  _atom_site_thermal_displace_type
  _atom_site_B_iso_or_equiv
  _atom_site_type_symbol
  _atom_site_charge
         C1        1.0000    0.21390   0.04320   0.59920   Biso      1.000     C          -0.283058           
         C2        1.0000    0.67320   0.94200   0.41560   Biso      1.000     C          0.241943  
         C3        1.0000    0.64370   0.54320   0.09920   Biso      1.000     C          -0.282358           
         C4        1.0000    0.53080   0.55800   0.08440   Biso      1.000     C          0.240892  
         C5        1.0000    0.24290   0.90080   0.04320   Biso      1.000     C          -0.283544           
         C6        1.0000    0.11520   0.91560   0.05800   Biso      1.000     C          0.241119  
         C7        1.0000    0.68690   0.59920   0.45680   Biso      1.000     C          -0.283638           
         C8        1.0000    0.58880   0.58440   0.44200   Biso      1.000     C          0.241946  
         C9        1.0000    0.64370   0.09920   0.54320   Biso      1.000     C          -0.282352           
         C10       1.0000    0.53080   0.08440   0.55800   Biso      1.000     C          0.24089899999999997           
         C11       1.0000    0.78610   0.95680   0.40080   Biso      1.000     C          -0.283057           
         C12       1.0000    0.78610   0.40080   0.95680   Biso      1.000     C          -0.283071           
         C13       1.0000    0.68690   0.45680   0.59920   Biso      1.000     C          -0.283638           
         C14       1.0000    0.58880   0.44200   0.58440   Biso      1.000     C          0.241945  
         C15       1.0000    0.24290   0.04320   0.90080   Biso      1.000     C          -0.283546           
         C16       1.0000    0.11520   0.05800   0.91560   Biso      1.000     C          0.24111999999999997           
         C17       1.0000    0.32680   0.05800   0.58440   Biso      1.000     C          0.241944  
         C18       1.0000    0.35630   0.45680   0.90080   Biso      1.000     C          -0.282358           
         C19       1.0000    0.46920   0.44200   0.91560   Biso      1.000     C          0.240892  
         C20       1.0000    0.75710   0.09920   0.95680   Biso      1.000     C          -0.283544           
         C21       1.0000    0.88480   0.08440   0.94200   Biso      1.000     C          0.241119  
         C22       1.0000    0.67320   0.41560   0.94200   Biso      1.000     C          0.241945  
         C23       1.0000    0.88480   0.94200   0.08440   Biso      1.000     C          0.24111799999999997           
         C24       1.0000    0.75710   0.95680   0.09920   Biso      1.000     C          -0.283545           
         C25       1.0000    0.41120   0.55800   0.41560   Biso      1.000     C          0.241943  
         C26       1.0000    0.76450   0.00270   0.49730   Biso      1.000     C          -0.13982999999999998          
         C27       1.0000    0.55140   0.00730   0.49270   Biso      1.000     C          -0.069793           
         C28       1.0000    0.76450   0.49730   0.00270   Biso      1.000     C          -0.139824           
         C29       1.0000    0.55140   0.49270   0.00730   Biso      1.000     C          -0.069771           
         C30       1.0000    0.76180   0.50270   0.50270   Biso      1.000     C          -0.143524           
         C31       1.0000    0.54410   0.50730   0.50730   Biso      1.000     C          -0.070285           
         C32       1.0000    0.26720   0.99730   0.99730   Biso      1.000     C          -0.13930599999999999          
         C33       1.0000    0.05870   0.99270   0.99270   Biso      1.000     C          -0.068896           
         C34       1.0000    0.23550   0.99730   0.50270   Biso      1.000     C          -0.13982999999999998          
         C35       1.0000    0.44860   0.99270   0.50730   Biso      1.000     C          -0.06979099999999999          
         C36       1.0000    0.23550   0.50270   0.99730   Biso      1.000     C          -0.139824           
         C37       1.0000    0.44860   0.50730   0.99270   Biso      1.000     C          -0.06976900000000001          
         C38       1.0000    0.73280   0.00270   0.00270   Biso      1.000     C          -0.139307           
         C39       1.0000    0.94130   0.00730   0.00730   Biso      1.000     C          -0.06888999999999999          
         C40       1.0000    0.23820   0.49730   0.49730   Biso      1.000     C          -0.143523           
         C41       1.0000    0.45590   0.49270   0.49270   Biso      1.000     C          -0.070283           
         C42       1.0000    0.35630   0.90080   0.45680   Biso      1.000     C          -0.282352           
         C43       1.0000    0.46920   0.91560   0.44200   Biso      1.000     C          0.24089899999999997           
         C44       1.0000    0.21390   0.59920   0.04320   Biso      1.000     C          -0.283072           
         C45       1.0000    0.32680   0.58440   0.05800   Biso      1.000     C          0.241948  
         C46       1.0000    0.31310   0.54320   0.40080   Biso      1.000     C          -0.283638           
         C47       1.0000    0.31310   0.40080   0.54320   Biso      1.000     C          -0.283638           
         C48       1.0000    0.41120   0.41560   0.55800   Biso      1.000     C          0.241948  
         Cu1       1.0000    0.38430   0.25000   0.73140   Biso      1.000     Cu          0.233729  
         Cu2       1.0000    0.86570   0.25000   0.76860   Biso      1.000     Cu          0.23344600000000001           
         Cu3       1.0000    0.61570   0.26860   0.75000   Biso      1.000     Cu          0.23372600000000002           
         Cu4       1.0000    0.13430   0.23140   0.75000   Biso      1.000     Cu          0.233449  
         Cu5       1.0000    0.61570   0.75000   0.26860   Biso      1.000     Cu          0.233724  
         Cu6       1.0000    0.13430   0.75000   0.23140   Biso      1.000     Cu          0.23344600000000001           
         Cu7       1.0000    0.38430   0.73140   0.25000   Biso      1.000     Cu          0.233725  
         Cu8       1.0000    0.86570   0.76860   0.25000   Biso      1.000     Cu          0.233449  
         H1        1.0000    0.21210   0.05180   0.05180   Biso      1.000     H          0.108706  
         H2        1.0000    0.74230   0.38920   0.61720   Biso      1.000     H          0.12026099999999999           
         H3        1.0000    0.80250   0.34200   0.00520   Biso      1.000     H          0.133275  
         H4        1.0000    0.85950   0.38280   0.88920   Biso      1.000     H          0.11902   
         H5        1.0000    0.74230   0.61720   0.38920   Biso      1.000     H          0.12025899999999999           
         H6        1.0000    0.63150   0.11720   0.61080   Biso      1.000     H          0.118373  
         H7        1.0000    0.64450   0.65800   0.50520   Biso      1.000     H          0.13314700000000002           
         H8        1.0000    0.64450   0.50520   0.65800   Biso      1.000     H          0.13314700000000002           
         H9        1.0000    0.64970   0.15800   0.49480   Biso      1.000     H          0.133871  
         H10       1.0000    0.24870   0.11080   0.88280   Biso      1.000     H          0.120359  
         H11       1.0000    0.36850   0.38920   0.88280   Biso      1.000     H          0.11837400000000001           
         H12       1.0000    0.14050   0.11080   0.61720   Biso      1.000     H          0.119023  
         H13       1.0000    0.19750   0.99480   0.65800   Biso      1.000     H          0.133273  
         H14       1.0000    0.30770   0.84200   0.99480   Biso      1.000     H          0.132976  
         H15       1.0000    0.35030   0.50520   0.84200   Biso      1.000     H          0.13387000000000002           
         H16       1.0000    0.75130   0.11720   0.88920   Biso      1.000     H          0.12035799999999999           
         H17       1.0000    0.69230   0.15800   0.00520   Biso      1.000     H          0.132976  
         H18       1.0000    0.25770   0.38280   0.61080   Biso      1.000     H          0.12025899999999999           
         H19       1.0000    0.35550   0.34200   0.49480   Biso      1.000     H          0.13314700000000002           
         H20       1.0000    0.35310   0.98130   0.98130   Biso      1.000     H          0.11782000000000001           
         H21       1.0000    0.24870   0.88280   0.11080   Biso      1.000     H          0.12035799999999999           
         H22       1.0000    0.30770   0.99480   0.84200   Biso      1.000     H          0.132977  
         H23       1.0000    0.63150   0.61080   0.11720   Biso      1.000     H          0.11837400000000001           
         H24       1.0000    0.81570   0.51870   0.51870   Biso      1.000     H          0.12148900000000001           
         H25       1.0000    0.64970   0.49480   0.15800   Biso      1.000     H          0.13387000000000002           
         H26       1.0000    0.83440   0.48130   0.01870   Biso      1.000     H          0.11901600000000001           
         H27       1.0000    0.76390   0.55180   0.94820   Biso      1.000     H          0.10875699999999999           
         H28       1.0000    0.83440   0.01870   0.48130   Biso      1.000     H          0.11901500000000001           
         H29       1.0000    0.76390   0.94820   0.55180   Biso      1.000     H          0.108759  
         H30       1.0000    0.23610   0.05180   0.44820   Biso      1.000     H          0.108759  
         H31       1.0000    0.16560   0.98130   0.51870   Biso      1.000     H          0.11901500000000001           
         H32       1.0000    0.23610   0.44820   0.05180   Biso      1.000     H          0.10875599999999999           
         H33       1.0000    0.16560   0.51870   0.98130   Biso      1.000     H          0.11901600000000001           
         H34       1.0000    0.78790   0.94820   0.94820   Biso      1.000     H          0.108706  
         H35       1.0000    0.64690   0.01870   0.01870   Biso      1.000     H          0.11782000000000001           
         H36       1.0000    0.81570   0.44820   0.44820   Biso      1.000     H          0.1087    
         H37       1.0000    0.18430   0.48130   0.48130   Biso      1.000     H          0.12149000000000001           
         H38       1.0000    0.36850   0.88280   0.38920   Biso      1.000     H          0.118373  
         H39       1.0000    0.35030   0.84200   0.50520   Biso      1.000     H          0.133871  
         H40       1.0000    0.14050   0.61720   0.11080   Biso      1.000     H          0.119021  
         H41       1.0000    0.19750   0.65800   0.99480   Biso      1.000     H          0.133275  
         H42       1.0000    0.25770   0.61080   0.38280   Biso      1.000     H          0.12026099999999999           
         H43       1.0000    0.35550   0.49480   0.34200   Biso      1.000     H          0.13314700000000002           
         H44       1.0000    0.75130   0.88920   0.11720   Biso      1.000     H          0.120359  
         H45       1.0000    0.69230   0.00520   0.15800   Biso      1.000     H          0.132977  
         H46       1.0000    0.85950   0.88920   0.38280   Biso      1.000     H          0.119023  
         H47       1.0000    0.80250   0.00520   0.34200   Biso      1.000     H          0.133272  
         H48       1.0000    0.18430   0.55180   0.55180   Biso      1.000     H          0.1087    
         I1        1.0000    0.00000   0.64406   0.35594   Biso      1.000     I          -0.38443499999999997          
         I2        1.0000    0.85594   0.64406   0.14406   Biso      1.000     I          -0.384365           
         I3        1.0000    0.14406   0.85594   0.35594   Biso      1.000     I          -0.384362           
         I4        1.0000    0.50000   0.85594   0.14406   Biso      1.000     I          -0.384323           
         I5        1.0000    0.00000   0.35594   0.64406   Biso      1.000     I          -0.384434           
         I6        1.0000    0.85594   0.14406   0.64406   Biso      1.000     I          -0.384361           
         I7        1.0000    0.50000   0.14406   0.85594   Biso      1.000     I          -0.384319           
         I8        1.0000    0.14406   0.35594   0.85594   Biso      1.000     I          -0.384361           
         N1        1.0000    0.54580   0.64250   0.37090   Biso      1.000     N          -0.144441           
         N2        1.0000    0.45420   0.62910   0.35750   Biso      1.000     N          -0.14443499999999998          
         N3        1.0000    0.94080   0.87090   0.14250   Biso      1.000     N          -0.14465799999999998          
         N4        1.0000    0.68830   0.87090   0.35750   Biso      1.000     N          -0.145901           
         N5        1.0000    0.41670   0.62910   0.14250   Biso      1.000     N          -0.143554           
         N6        1.0000    0.05920   0.85750   0.12910   Biso      1.000     N          -0.144649           
         N7        1.0000    0.41670   0.14250   0.62910   Biso      1.000     N          -0.143551           
         N8        1.0000    0.31170   0.64250   0.12910   Biso      1.000     N          -0.145893           
         N9        1.0000    0.54580   0.37090   0.64250   Biso      1.000     N          -0.14444300000000002          
         N10       1.0000    0.05920   0.12910   0.85750   Biso      1.000     N          -0.14465899999999998          
         N11       1.0000    0.31170   0.12910   0.64250   Biso      1.000     N          -0.145894           
         N12       1.0000    0.58330   0.37090   0.85750   Biso      1.000     N          -0.143554           
         N13       1.0000    0.94080   0.14250   0.87090   Biso      1.000     N          -0.144649           
         N14       1.0000    0.45420   0.35750   0.62910   Biso      1.000     N          -0.14443599999999998          
         N15       1.0000    0.68830   0.35750   0.87090   Biso      1.000     N          -0.145893           
         N16       1.0000    0.58330   0.85750   0.37090   Biso      1.000     N          -0.143541 