
##########################################################################
#               Crystallographic Information Format file
#               Produced by PyCifRW module
#
#  This is a CIF file.  CIF has been adopted by the International
#  Union of Crystallography as the standard for data archiving and
#  transmission.
#
#  For information on this file format, follow the CIF links at
#  http://www.iucr.org
##########################################################################

data_image0

_cell_length_a                          6.827
_cell_length_b                          13.965
_cell_length_c                          16.073
_cell_angle_alpha                       90
_cell_angle_beta                        90
_cell_angle_gamma                       90
_symmetry_space_group_name_H-M          'P 1'
_symmetry_int_tables_number             1
loop_
  _symmetry_equiv_pos_as_xyz
         'x, y, z' 
loop_
  _atom_site_label
  _atom_site_occupancy
  _atom_site_fract_x
  _atom_site_fract_y
  _atom_site_fract_z
  _atom_site_thermal_displace_type
  _atom_site_B_iso_or_equiv
  _atom_site_type_symbol
  _atom_site_charge
         C1        1.0000    0.41710   0.02230   0.70390   Biso      1.000     C          -0.104022           
         C2        1.0000    0.22210   0.12050   0.60460   Biso      1.000     C          0.616954  
         C3        1.0000    0.06980   0.00400   0.70250   Biso      1.000     C          -0.10674000000000002          
         C4        1.0000    0.08230   0.94060   0.76650   Biso      1.000     C          -0.10359600000000001          
         C5        1.0000    0.27580   0.85380   0.87580   Biso      1.000     C          0.620494  
         C6        1.0000    0.26220   0.91740   0.80250   Biso      1.000     C          -0.021319           
         C7        1.0000    0.43010   0.96090   0.76980   Biso      1.000     C          -0.105565           
         C8        1.0000    0.72210   0.37950   0.39540   Biso      1.000     C          0.616954  
         C9        1.0000    0.73850   0.45260   0.32960   Biso      1.000     C          -0.016305           
         C10       1.0000    0.56980   0.49600   0.29750   Biso      1.000     C          -0.10674000000000002          
         C11       1.0000    0.58230   0.55940   0.23350   Biso      1.000     C          -0.10359600000000001          
         C12       1.0000    0.08290   0.97770   0.20390   Biso      1.000     C          -0.104022           
         C13       1.0000    0.77580   0.64620   0.12420   Biso      1.000     C          0.620494  
         C14       1.0000    0.93010   0.53910   0.23020   Biso      1.000     C          -0.105572           
         C15       1.0000    0.91710   0.47770   0.29610   Biso      1.000     C          -0.104012           
         C16       1.0000    0.77790   0.62050   0.89540   Biso      1.000     C          0.616954  
         C17       1.0000    0.76150   0.54740   0.82960   Biso      1.000     C          -0.016305           
         C18       1.0000    0.93020   0.50400   0.79750   Biso      1.000     C          -0.106741           
         C19       1.0000    0.91770   0.44060   0.73350   Biso      1.000     C          -0.103595           
         C20       1.0000    0.72420   0.35380   0.62420   Biso      1.000     C          0.620494  
         C21       1.0000    0.73780   0.41740   0.69750   Biso      1.000     C          -0.021318           
         C22       1.0000    0.56990   0.46090   0.73020   Biso      1.000     C          -0.105572           
         C23       1.0000    0.58290   0.52230   0.79610   Biso      1.000     C          -0.10401300000000001          
         C24       1.0000    0.76220   0.58260   0.19750   Biso      1.000     C          -0.021318           
         C25       1.0000    0.06990   0.03910   0.26980   Biso      1.000     C          -0.105565           
         C26       1.0000    0.23850   0.04740   0.67040   Biso      1.000     C          -0.016302           
         C27       1.0000    0.22420   0.14620   0.37580   Biso      1.000     C          0.620494  
         C28       1.0000    0.41770   0.05940   0.26650   Biso      1.000     C          -0.10360799999999999          
         C29       1.0000    0.43020   0.99600   0.20250   Biso      1.000     C          -0.106728           
         C30       1.0000    0.26150   0.95260   0.17040   Biso      1.000     C          -0.016303           
         C31       1.0000    0.27790   0.87950   0.10460   Biso      1.000     C          0.616954  
         C32       1.0000    0.23780   0.08260   0.30250   Biso      1.000     C          -0.021317           
         H1        1.0000    0.55190   0.98150   0.17980   Biso      1.000     H          0.12676700000000002           
         H2        1.0000    0.53130   0.08780   0.28680   Biso      1.000     H          0.126388  
         H3        1.0000    0.94820   0.05210   0.29320   Biso      1.000     H          0.12621500000000002           
         H4        1.0000    0.96890   0.95230   0.18120   Biso      1.000     H          0.126924  
         H5        1.0000    0.94810   0.01850   0.67980   Biso      1.000     H          0.12676800000000002           
         H6        1.0000    0.96870   0.91220   0.78680   Biso      1.000     H          0.126388  
         H7        1.0000    0.53110   0.04770   0.68120   Biso      1.000     H          0.126923  
         H8        1.0000    0.44810   0.48150   0.32020   Biso      1.000     H          0.12676800000000002           
         H9        1.0000    0.55180   0.94790   0.79320   Biso      1.000     H          0.12621500000000002           
         H10       1.0000    0.05180   0.55210   0.20680   Biso      1.000     H          0.126216  
         H11       1.0000    0.03110   0.45230   0.31880   Biso      1.000     H          0.126923  
         H12       1.0000    0.05190   0.51850   0.82020   Biso      1.000     H          0.12676800000000002           
         H13       1.0000    0.03130   0.41220   0.71320   Biso      1.000     H          0.126388  
         H14       1.0000    0.44820   0.44790   0.70680   Biso      1.000     H          0.126216  
         H15       1.0000    0.46890   0.54770   0.81880   Biso      1.000     H          0.126923  
         H16       1.0000    0.46870   0.58780   0.21320   Biso      1.000     H          0.126388  
         O1        1.0000    0.11720   0.81930   0.90310   Biso      1.000     O          -0.574745           
         O2        1.0000    0.28230   0.69120   0.00580   Biso      1.000     O          -0.7596069999999999           
         O3        1.0000    0.55630   0.35720   0.42150   Biso      1.000     O          -0.582708           
         O4        1.0000    0.94410   0.66600   0.09470   Biso      1.000     O          -0.603358           
         O5        1.0000    0.21770   0.30880   0.50580   Biso      1.000     O          -0.7596069999999999           
         O6        1.0000    0.55590   0.33400   0.59470   Biso      1.000     O          -0.603358           
         O7        1.0000    0.94370   0.64280   0.92150   Biso      1.000     O          -0.582708           
         O8        1.0000    0.38360   0.15740   0.57620   Biso      1.000     O          -0.591766           
         O9        1.0000    0.61720   0.68070   0.09690   Biso      1.000     O          -0.574745           
         O10       1.0000    0.88360   0.34260   0.42380   Biso      1.000     O          -0.591766           
         O11       1.0000    0.44410   0.83400   0.90530   Biso      1.000     O          -0.603358           
         O12       1.0000    0.88280   0.31930   0.59690   Biso      1.000     O          -0.5747439999999999           
         O13       1.0000    0.78230   0.80880   0.99420   Biso      1.000     O          -0.7596069999999999           
         O14       1.0000    0.38280   0.18070   0.40310   Biso      1.000     O          -0.5747439999999999           
         O15       1.0000    0.11640   0.84260   0.07620   Biso      1.000     O          -0.591766           
         O16       1.0000    0.05590   0.16600   0.40530   Biso      1.000     O          -0.603358           
         O17       1.0000    0.44370   0.85720   0.07850   Biso      1.000     O          -0.582709           
         O18       1.0000    0.71770   0.19120   0.49420   Biso      1.000     O          -0.7596069999999999           
         O19       1.0000    0.61640   0.65740   0.92380   Biso      1.000     O          -0.591766           
         O20       1.0000    0.05630   0.14280   0.57850   Biso      1.000     O          -0.582708           
         V1        1.0000    0.43488   0.26415   0.50089   Biso      1.000     V          1.8259849999999997  
         V2        1.0000    0.06512   0.73585   0.00089   Biso      1.000     V          1.8259849999999997  
         V3        1.0000    0.56512   0.76415   0.99911   Biso      1.000     V          1.8259849999999997  
         V4        1.0000    0.93488   0.23585   0.49911   Biso      1.000     V          1.825984 