
##########################################################################
#               Crystallographic Information Format file
#               Produced by PyCifRW module
#
#  This is a CIF file.  CIF has been adopted by the International
#  Union of Crystallography as the standard for data archiving and
#  transmission.
#
#  For information on this file format, follow the CIF links at
#  http://www.iucr.org
##########################################################################

data_image0

_cell_length_a                          6.8023
_cell_length_b                          13.912
_cell_length_c                          16.052
_cell_angle_alpha                       90
_cell_angle_beta                        90
_cell_angle_gamma                       90
_symmetry_space_group_name_H-M          'P 1'
_symmetry_int_tables_number             1
loop_
  _symmetry_equiv_pos_as_xyz
         'x, y, z' 
loop_
  _atom_site_label
  _atom_site_occupancy
  _atom_site_fract_x
  _atom_site_fract_y
  _atom_site_fract_z
  _atom_site_thermal_displace_type
  _atom_site_B_iso_or_equiv
  _atom_site_type_symbol
  _atom_site_charge
         C1        1.0000    0.27590   0.12470   0.10710   Biso      1.000     C          0.617916  
         C2        1.0000    0.22540   0.85680   0.37863   Biso      1.000     C          0.6289640000000001  
         C3        1.0000    0.06870   0.96260   0.27200   Biso      1.000     C          -0.107056           
         C4        1.0000    0.08200   0.02650   0.20710   Biso      1.000     C          -0.10528399999999999          
         C5        1.0000    0.41900   0.94650   0.27330   Biso      1.000     C          -0.10671099999999999          
         C6        1.0000    0.42980   0.01180   0.20740   Biso      1.000     C          -0.111114           
         C7        1.0000    0.26200   0.05270   0.17578   Biso      1.000     C          -0.014622           
         C8        1.0000    0.72540   0.64320   0.62137   Biso      1.000     C          0.6289640000000001  
         C9        1.0000    0.73770   0.57690   0.69357   Biso      1.000     C          -0.022343000000000002         
         C10       1.0000    0.56870   0.53740   0.72800   Biso      1.000     C          -0.107056           
         C11       1.0000    0.58200   0.47350   0.79290   Biso      1.000     C          -0.10528299999999999          
         C12       1.0000    0.22410   0.87530   0.60710   Biso      1.000     C          0.617922  
         C13       1.0000    0.91900   0.55350   0.72670   Biso      1.000     C          -0.10671199999999999          
         C14       1.0000    0.76200   0.44730   0.82422   Biso      1.000     C          -0.014628           
         C15       1.0000    0.77590   0.37530   0.89290   Biso      1.000     C          0.617917  
         C16       1.0000    0.77460   0.35680   0.12137   Biso      1.000     C          0.6289600000000001  
         C17       1.0000    0.76230   0.42310   0.19357   Biso      1.000     C          -0.022341999999999997         
         C18       1.0000    0.93130   0.46260   0.22800   Biso      1.000     C          -0.10705799999999999          
         C19       1.0000    0.91800   0.52650   0.29290   Biso      1.000     C          -0.10528199999999999          
         C20       1.0000    0.58100   0.44650   0.22670   Biso      1.000     C          -0.10671300000000002          
         C21       1.0000    0.57020   0.51180   0.29260   Biso      1.000     C          -0.11111199999999999          
         C22       1.0000    0.73800   0.55270   0.32422   Biso      1.000     C          -0.014622999999999999         
         C23       1.0000    0.72410   0.62470   0.39290   Biso      1.000     C          0.617921  
         C24       1.0000    0.92980   0.48820   0.79260   Biso      1.000     C          -0.111107           
         C25       1.0000    0.23800   0.94730   0.67578   Biso      1.000     C          -0.014633000000000002         
         C26       1.0000    0.23770   0.92310   0.30643   Biso      1.000     C          -0.022343000000000002         
         C27       1.0000    0.08100   0.05350   0.77330   Biso      1.000     C          -0.106714           
         C28       1.0000    0.41800   0.97350   0.70710   Biso      1.000     C          -0.10528  
         C29       1.0000    0.43130   0.03740   0.77200   Biso      1.000     C          -0.107056           
         C30       1.0000    0.26230   0.07690   0.80643   Biso      1.000     C          -0.022341           
         C31       1.0000    0.27460   0.14320   0.87863   Biso      1.000     C          0.6289600000000001  
         C32       1.0000    0.07020   0.98820   0.70740   Biso      1.000     C          -0.111105           
         H1        1.0000    0.55400   0.05440   0.79290   Biso      1.000     H          0.126225  
         H2        1.0000    0.53190   0.94770   0.68420   Biso      1.000     H          0.127137  
         H3        1.0000    0.96710   0.08090   0.79470   Biso      1.000     H          0.127968  
         H4        1.0000    0.94860   0.97240   0.68470   Biso      1.000     H          0.126851  
         H5        1.0000    0.94600   0.94560   0.29290   Biso      1.000     H          0.126226  
         H6        1.0000    0.96810   0.05230   0.18420   Biso      1.000     H          0.127136  
         H7        1.0000    0.55140   0.02760   0.18470   Biso      1.000     H          0.12685   
         H8        1.0000    0.44600   0.55440   0.70710   Biso      1.000     H          0.126226  
         H9        1.0000    0.53290   0.91910   0.29470   Biso      1.000     H          0.127969  
         H10       1.0000    0.03290   0.58090   0.70530   Biso      1.000     H          0.127969  
         H11       1.0000    0.05140   0.47240   0.81530   Biso      1.000     H          0.12685   
         H12       1.0000    0.05400   0.44560   0.20710   Biso      1.000     H          0.126225  
         H13       1.0000    0.03190   0.55230   0.31580   Biso      1.000     H          0.127137  
         H14       1.0000    0.46710   0.41910   0.20530   Biso      1.000     H          0.127968  
         H15       1.0000    0.44860   0.52760   0.31530   Biso      1.000     H          0.126851  
         H16       1.0000    0.46810   0.44770   0.81580   Biso      1.000     H          0.127136  
         O1        1.0000    0.11430   0.15965   0.08196   Biso      1.000     O          -0.57515  
         O2        1.0000    0.21776   0.69061   0.50390   Biso      1.000     O          -0.759834           
         O3        1.0000    0.55750   0.66221   0.59359   Biso      1.000     O          -0.597621           
         O4        1.0000    0.94370   0.35455   0.91985   Biso      1.000     O          -0.5888770000000001           
         O5        1.0000    0.28224   0.30939   0.00390   Biso      1.000     O          -0.759828           
         O6        1.0000    0.55630   0.64545   0.41985   Biso      1.000     O          -0.588881           
         O7        1.0000    0.94250   0.33779   0.09359   Biso      1.000     O          -0.597617           
         O8        1.0000    0.38330   0.82329   0.40649   Biso      1.000     O          -0.5768949999999999           
         O9        1.0000    0.61430   0.34035   0.91804   Biso      1.000     O          -0.57515  
         O10       1.0000    0.88330   0.67671   0.59351   Biso      1.000     O          -0.5768949999999999           
         O11       1.0000    0.44370   0.14545   0.08015   Biso      1.000     O          -0.5888770000000001           
         O12       1.0000    0.88570   0.65965   0.41804   Biso      1.000     O          -0.5751539999999999           
         O13       1.0000    0.71776   0.80939   0.49610   Biso      1.000     O          -0.759833           
         O14       1.0000    0.38570   0.84035   0.58196   Biso      1.000     O          -0.5751539999999999           
         O15       1.0000    0.11670   0.17671   0.90649   Biso      1.000     O          -0.5768909999999999           
         O16       1.0000    0.05630   0.85455   0.58015   Biso      1.000     O          -0.588881           
         O17       1.0000    0.44250   0.16221   0.90641   Biso      1.000     O          -0.597617           
         O18       1.0000    0.78224   0.19061   0.99610   Biso      1.000     O          -0.759828           
         O19       1.0000    0.61670   0.32329   0.09351   Biso      1.000     O          -0.5768909999999999           
         O20       1.0000    0.05750   0.83779   0.40641   Biso      1.000     O          -0.597621           
         V1        1.0000    0.06450   0.26394   0.00079   Biso      1.000     V          1.8104369999999999  
         V2        1.0000    0.43550   0.73606   0.50079   Biso      1.000     V          1.8104470000000001  
         V3        1.0000    0.93550   0.76394   0.49921   Biso      1.000     V          1.810446  
         V4        1.0000    0.56450   0.23606   0.99921   Biso      1.000     V          1.810438 