
##########################################################################
#               Crystallographic Information Format file
#               Produced by PyCifRW module
#
#  This is a CIF file.  CIF has been adopted by the International
#  Union of Crystallography as the standard for data archiving and
#  transmission.
#
#  For information on this file format, follow the CIF links at
#  http://www.iucr.org
##########################################################################

data_image0

_cell_length_a                          9.398
_cell_length_b                          15.307
_cell_length_c                          16.751
_cell_angle_alpha                       68.756
_cell_angle_beta                        79.322
_cell_angle_gamma                       89.276
_symmetry_space_group_name_H-M          'P 1'
_symmetry_int_tables_number             1
loop_
  _symmetry_equiv_pos_as_xyz
         'x, y, z' 
loop_
  _atom_site_label
  _atom_site_occupancy
  _atom_site_fract_x
  _atom_site_fract_y
  _atom_site_fract_z
  _atom_site_thermal_displace_type
  _atom_site_B_iso_or_equiv
  _atom_site_type_symbol
  _atom_site_charge
         C1        1.0000    0.85900   0.98980   0.43830   Biso      1.000     C          0.6786369999999999  
         C2        1.0000    0.68870   0.03260   0.77030   Biso      1.000     C          -0.155595           
         C3        1.0000    0.56070   0.98020   0.82210   Biso      1.000     C          0.005746  
         C4        1.0000    0.44540   0.02540   0.84930   Biso      1.000     C          -0.127302           
         C5        1.0000    0.45210   0.12290   0.82470   Biso      1.000     C          -0.031307999999999996         
         C6        1.0000    0.57970   0.17650   0.77550   Biso      1.000     C          0.012258  
         C7        1.0000    0.69950   0.12940   0.74950   Biso      1.000     C          -0.08823099999999999          
         C8        1.0000    0.85060   0.17540   0.70890   Biso      1.000     C          0.696136  
         C9        1.0000    0.05430   0.95150   0.88110   Biso      1.000     C          0.670326  
         C10       1.0000    0.94570   0.04850   0.11890   Biso      1.000     C          0.670326  
         C11       1.0000    0.31290   0.16440   0.85040   Biso      1.000     C          0.592895  
         C12       1.0000    0.88630   0.15380   0.32740   Biso      1.000     C          -0.13811700000000002          
         C13       1.0000    0.90160   0.02360   0.27860   Biso      1.000     C          -0.11829300000000001          
         C14       1.0000    0.92150   0.08710   0.19210   Biso      1.000     C          0.003721  
         C15       1.0000    0.92450   0.18200   0.17430   Biso      1.000     C          -0.105923           
         C16       1.0000    0.90810   0.21820   0.24140   Biso      1.000     C          0.11243199999999999           
         C17       1.0000    0.70190   0.34150   0.14450   Biso      1.000     C          0.5883510000000001  
         C18       1.0000    0.13310   0.30660   0.29490   Biso      1.000     C          0.713575  
         C19       1.0000    0.83790   0.47750   0.14820   Biso      1.000     C          -0.126191           
         C20       1.0000    0.82440   0.38040   0.17050   Biso      1.000     C          -0.023262           
         C21       1.0000    0.91520   0.32130   0.22160   Biso      1.000     C          0.002075  
         C22       1.0000    0.88360   0.05820   0.34470   Biso      1.000     C          -0.069891           
         C23       1.0000    0.55620   0.87470   0.84900   Biso      1.000     C          0.592569  
         C24       1.0000    0.59490   0.28070   0.75660   Biso      1.000     C          0.087322  
         C25       1.0000    0.55140   0.31510   0.82340   Biso      1.000     C          -0.132518           
         C26       1.0000    0.11370   0.84620   0.67260   Biso      1.000     C          -0.13811600000000002          
         C27       1.0000    0.11640   0.94180   0.65530   Biso      1.000     C          -0.069895           
         C28       1.0000    0.09840   0.97640   0.72140   Biso      1.000     C          -0.11829  
         C29       1.0000    0.07850   0.91290   0.80790   Biso      1.000     C          0.00372   
         C30       1.0000    0.07550   0.81800   0.82570   Biso      1.000     C          -0.105923           
         C31       1.0000    0.09190   0.78180   0.75860   Biso      1.000     C          0.11243199999999999           
         C32       1.0000    0.29810   0.65850   0.85550   Biso      1.000     C          0.5883510000000001  
         C33       1.0000    0.86690   0.69340   0.70510   Biso      1.000     C          0.713575  
         C34       1.0000    0.16210   0.52250   0.85180   Biso      1.000     C          -0.126191           
         C35       1.0000    0.17560   0.61960   0.82950   Biso      1.000     C          -0.023262           
         C36       1.0000    0.08480   0.67870   0.77840   Biso      1.000     C          0.002075  
         C37       1.0000    0.98300   0.63720   0.74970   Biso      1.000     C          -0.10719100000000001          
         C38       1.0000    0.97660   0.54040   0.76760   Biso      1.000     C          -0.140997           
         C39       1.0000    0.06520   0.48220   0.81950   Biso      1.000     C          0.022393  
         C40       1.0000    0.05150   0.37880   0.84190   Biso      1.000     C          0.596475  
         C41       1.0000    0.74030   0.50760   0.56650   Biso      1.000     C          0.648796  
         C42       1.0000    0.52730   0.44910   0.87920   Biso      1.000     C          0.693589  
         C43       1.0000    0.65540   0.34290   0.67280   Biso      1.000     C          -0.159928           
         C44       1.0000    0.67420   0.43970   0.65650   Biso      1.000     C          -0.008270999999999999         
         C45       1.0000    0.62970   0.47230   0.72320   Biso      1.000     C          -0.118414           
         C46       1.0000    0.56940   0.41010   0.80760   Biso      1.000     C          -0.014465           
         C47       1.0000    0.01700   0.36280   0.25030   Biso      1.000     C          -0.10719100000000001          
         C48       1.0000    0.02340   0.45960   0.23240   Biso      1.000     C          -0.140997           
         C49       1.0000    0.14100   0.01020   0.56170   Biso      1.000     C          0.6786369999999999  
         C50       1.0000    0.43060   0.58990   0.19240   Biso      1.000     C          -0.014466           
         C51       1.0000    0.42030   0.82350   0.22450   Biso      1.000     C          0.012258  
         C52       1.0000    0.68710   0.83560   0.14960   Biso      1.000     C          0.592895  
         C53       1.0000    0.44380   0.12530   0.15100   Biso      1.000     C          0.592569  
         C54       1.0000    0.93480   0.51780   0.18050   Biso      1.000     C          0.022393  
         C55       1.0000    0.40510   0.71930   0.24340   Biso      1.000     C          0.087322  
         C56       1.0000    0.44860   0.68490   0.17660   Biso      1.000     C          -0.132516           
         C57       1.0000    0.54790   0.87710   0.17530   Biso      1.000     C          -0.031307999999999996         
         C58       1.0000    0.14940   0.82460   0.29110   Biso      1.000     C          0.696136  
         C59       1.0000    0.55460   0.97460   0.15070   Biso      1.000     C          -0.127305           
         C60       1.0000    0.30050   0.87060   0.25050   Biso      1.000     C          -0.08823099999999999          
         C61       1.0000    0.32580   0.56030   0.34350   Biso      1.000     C          -0.008270999999999999         
         C62       1.0000    0.34460   0.65710   0.32720   Biso      1.000     C          -0.159928           
         C63       1.0000    0.43930   0.01980   0.17790   Biso      1.000     C          0.005749  
         C64       1.0000    0.31130   0.96740   0.22970   Biso      1.000     C          -0.155596           
         C65       1.0000    0.47270   0.55090   0.12080   Biso      1.000     C          0.693589  
         C66       1.0000    0.25970   0.49240   0.43350   Biso      1.000     C          0.648796  
         C67       1.0000    0.94850   0.62120   0.15810   Biso      1.000     C          0.596475  
         C68       1.0000    0.37030   0.52770   0.27680   Biso      1.000     C          -0.118414           
         H1        1.0000    0.63840   0.00950   0.11540   Biso      1.000     H          0.125422  
         H2        1.0000    0.36160   0.99050   0.88460   Biso      1.000     H          0.125422  
         H3        1.0000    0.76600   0.00280   0.75000   Biso      1.000     H          0.12216400000000001           
         H4        1.0000    0.08750   0.48510   0.25530   Biso      1.000     H          0.12701099999999999           
         H5        1.0000    0.63980   0.53620   0.71220   Biso      1.000     H          0.127808  
         H6        1.0000    0.51000   0.27390   0.87910   Biso      1.000     H          0.13004000000000002           
         H7        1.0000    0.68330   0.32060   0.62770   Biso      1.000     H          0.114416  
         H8        1.0000    0.91250   0.51490   0.74470   Biso      1.000     H          0.12701099999999999           
         H9        1.0000    0.21870   0.48410   0.88890   Biso      1.000     H          0.127707  
         H10       1.0000    0.06230   0.77660   0.88340   Biso      1.000     H          0.13486199999999998           
         H11       1.0000    0.09930   0.04070   0.70890   Biso      1.000     H          0.11143800000000001           
         H12       1.0000    0.12660   0.82460   0.62660   Biso      1.000     H          0.123866  
         H13       1.0000    0.78720   0.98750   0.54250   Biso      1.000     H          0.44681800000000005           
         H14       1.0000    0.21280   0.01250   0.45750   Biso      1.000     H          0.44681800000000005           
         H15       1.0000    0.23400   0.99720   0.25000   Biso      1.000     H          0.12216400000000001           
         H16       1.0000    0.90070   0.95930   0.29110   Biso      1.000     H          0.11143800000000001           
         H17       1.0000    0.31670   0.67940   0.37230   Biso      1.000     H          0.114416  
         H18       1.0000    0.87340   0.17540   0.37340   Biso      1.000     H          0.123866  
         H19       1.0000    0.78130   0.51590   0.11110   Biso      1.000     H          0.127707  
         H20       1.0000    0.36020   0.46380   0.28780   Biso      1.000     H          0.127808  
         H21       1.0000    0.49000   0.72610   0.12090   Biso      1.000     H          0.13004000000000002           
         H22       1.0000    0.93770   0.22340   0.11660   Biso      1.000     H          0.13486199999999998           
         Nd1       1.0000    0.99942   0.17742   0.89088   Biso      1.000     Nd          2.093609  
         Nd2       1.0000    0.58444   0.67177   0.89209   Biso      1.000     Nd          2.088646  
         Nd3       1.0000    0.88362   0.73878   0.47835   Biso      1.000     Nd          2.2177729999999998  
         Nd4       1.0000    0.00058   0.82258   0.10912   Biso      1.000     Nd          2.093609  
         Nd5       1.0000    0.41556   0.32823   0.10791   Biso      1.000     Nd          2.088646  
         Nd6       1.0000    0.11638   0.26122   0.52165   Biso      1.000     Nd          2.2177729999999998  
         O1        1.0000    0.35010   0.15970   0.19440   Biso      1.000     O          -0.677318           
         O2        1.0000    0.10620   0.26480   0.37620   Biso      1.000     O          -0.748092           
         O3        1.0000    0.24890   0.30420   0.24710   Biso      1.000     O          -0.617052           
         O4        1.0000    0.08220   0.80200   0.24240   Biso      1.000     O          -0.688022           
         O5        1.0000    0.90730   0.67610   0.09070   Biso      1.000     O          -0.6433810000000001           
         O6        1.0000    0.53280   0.17740   0.08640   Biso      1.000     O          -0.6206520000000001           
         O7        1.0000    0.10020   0.81600   0.36790   Biso      1.000     O          -0.717097           
         O8        1.0000    0.74840   0.86440   0.07110   Biso      1.000     O          -0.601275           
         O9        1.0000    0.23190   0.51830   0.49530   Biso      1.000     O          -0.571488           
         O10       1.0000    0.23650   0.40840   0.43930   Biso      1.000     O          -0.800141           
         O11       1.0000    0.46300   0.46550   0.13990   Biso      1.000     O          -0.676191           
         O12       1.0000    0.69150   0.37060   0.06500   Biso      1.000     O          -0.6291720000000001           
         O13       1.0000    0.74740   0.77910   0.20850   Biso      1.000     O          -0.662226           
         O14       1.0000    0.00920   0.65290   0.20370   Biso      1.000     O          -0.639931           
         O15       1.0000    0.51410   0.60950   0.04550   Biso      1.000     O          -0.711646           
         O16       1.0000    0.75110   0.69580   0.75290   Biso      1.000     O          -0.617052           
         O17       1.0000    0.09270   0.32390   0.90930   Biso      1.000     O          -0.6433810000000001           
         O18       1.0000    0.89380   0.73520   0.62380   Biso      1.000     O          -0.748092           
         O19       1.0000    0.30850   0.62940   0.93500   Biso      1.000     O          -0.6291720000000001           
         O20       1.0000    0.39280   0.71300   0.79710   Biso      1.000     O          -0.620683           
         O21       1.0000    0.01570   0.89300   0.95680   Biso      1.000     O          -0.6853130000000001           
         O22       1.0000    0.07150   0.03850   0.86100   Biso      1.000     O          -0.6772239999999999           
         O23       1.0000    0.17570   0.97220   0.50440   Biso      1.000     O          -0.478213           
         O24       1.0000    0.99080   0.34710   0.79630   Biso      1.000     O          -0.639931           
         O25       1.0000    0.13150   0.09390   0.54400   Biso      1.000     O          -0.677864           
         O26       1.0000    0.76810   0.48170   0.50470   Biso      1.000     O          -0.571488           
         O27       1.0000    0.76350   0.59160   0.56070   Biso      1.000     O          -0.800141           
         O28       1.0000    0.53700   0.53450   0.86010   Biso      1.000     O          -0.676191           
         O29       1.0000    0.48590   0.39050   0.95450   Biso      1.000     O          -0.711646           
         O30       1.0000    0.64990   0.84030   0.80560   Biso      1.000     O          -0.677318           
         O31       1.0000    0.46720   0.82260   0.91360   Biso      1.000     O          -0.6206520000000001           
         O32       1.0000    0.25260   0.22090   0.79150   Biso      1.000     O          -0.662226           
         O33       1.0000    0.25160   0.13560   0.92890   Biso      1.000     O          -0.601275           
         O34       1.0000    0.89980   0.18400   0.63210   Biso      1.000     O          -0.717097           
         O35       1.0000    0.91780   0.19800   0.75760   Biso      1.000     O          -0.688022           
         O36       1.0000    0.86850   0.90610   0.45600   Biso      1.000     O          -0.677864           
         O37       1.0000    0.82430   0.02780   0.49560   Biso      1.000     O          -0.478213           
         O38       1.0000    0.92850   0.96150   0.13900   Biso      1.000     O          -0.6772239999999999           
         O39       1.0000    0.60720   0.28700   0.20290   Biso      1.000     O          -0.620683           
         O40       1.0000    0.98430   0.10700   0.04320   Biso      1.000     O          -0.6853130000000001 