
##########################################################################
#               Crystallographic Information Format file
#               Produced by PyCifRW module
#
#  This is a CIF file.  CIF has been adopted by the International
#  Union of Crystallography as the standard for data archiving and
#  transmission.
#
#  For information on this file format, follow the CIF links at
#  http://www.iucr.org
##########################################################################

data_image0

_cell_length_a                          14.0147
_cell_length_b                          18.3152
_cell_length_c                          7.863
_cell_angle_alpha                       90
_cell_angle_beta                        105.464
_cell_angle_gamma                       90
_symmetry_space_group_name_H-M          'P 1'
_symmetry_int_tables_number             1
loop_
  _symmetry_equiv_pos_as_xyz
         'x, y, z' 
loop_
  _atom_site_label
  _atom_site_occupancy
  _atom_site_fract_x
  _atom_site_fract_y
  _atom_site_fract_z
  _atom_site_thermal_displace_type
  _atom_site_B_iso_or_equiv
  _atom_site_type_symbol
  _atom_site_charge
         C1        1.0000    0.13680   0.18750   0.27770   Biso      1.000     C          -0.022006           
         C2        1.0000    0.86320   0.81250   0.72230   Biso      1.000     C          -0.022006           
         C3        1.0000    0.08770   0.31310   0.26940   Biso      1.000     C          -0.010204000000000001         
         C4        1.0000    0.17780   0.33400   0.24860   Biso      1.000     C          -0.154254           
         C5        1.0000    0.24960   0.28210   0.23790   Biso      1.000     C          0.084342  
         C6        1.0000    0.22630   0.20840   0.25050   Biso      1.000     C          -0.145264           
         C7        1.0000    0.63740   0.12090   0.70160   Biso      1.000     C          0.597882  
         C8        1.0000    0.11470   0.10710   0.30360   Biso      1.000     C          0.622159  
         C9        1.0000    0.00840   0.36850   0.26460   Biso      1.000     C          0.5883520000000001  
         C10       1.0000    0.34910   0.30520   0.22150   Biso      1.000     C          0.06999   
         C11       1.0000    0.36100   0.36970   0.13320   Biso      1.000     C          -0.153174           
         C12       1.0000    0.43310   0.23500   0.80070   Biso      1.000     C          -0.138603           
         C13       1.0000    0.45270   0.39260   0.12520   Biso      1.000     C          -0.097084           
         C14       1.0000    0.52360   0.21340   0.78850   Biso      1.000     C          -0.08830299999999999          
         C15       1.0000    0.53720   0.35230   0.20450   Biso      1.000     C          -0.023749           
         C16       1.0000    0.52360   0.28660   0.28850   Biso      1.000     C          -0.088315           
         C17       1.0000    0.53720   0.14770   0.70450   Biso      1.000     C          -0.023750999999999998         
         C18       1.0000    0.43310   0.26500   0.30070   Biso      1.000     C          -0.13859000000000002          
         C19       1.0000    0.45270   0.10740   0.62520   Biso      1.000     C          -0.097088           
         C20       1.0000    0.63740   0.37910   0.20160   Biso      1.000     C          0.597881  
         C21       1.0000    0.36100   0.13030   0.63320   Biso      1.000     C          -0.15317  
         C22       1.0000    0.34910   0.19480   0.72150   Biso      1.000     C          0.069991  
         C23       1.0000    0.00840   0.13150   0.76460   Biso      1.000     C          0.5883510000000001  
         C24       1.0000    0.11470   0.39290   0.80360   Biso      1.000     C          0.622159  
         C25       1.0000    0.22630   0.29160   0.75050   Biso      1.000     C          -0.145266           
         C26       1.0000    0.24960   0.21790   0.73790   Biso      1.000     C          0.084343  
         C27       1.0000    0.17780   0.16600   0.74860   Biso      1.000     C          -0.15425899999999998          
         C28       1.0000    0.13680   0.31250   0.77770   Biso      1.000     C          -0.022004           
         C29       1.0000    0.06730   0.23920   0.28830   Biso      1.000     C          -0.11495799999999999          
         C30       1.0000    0.06730   0.26080   0.78830   Biso      1.000     C          -0.11495899999999999          
         C31       1.0000    0.08770   0.18690   0.76940   Biso      1.000     C          -0.010199           
         C32       1.0000    0.91230   0.68690   0.73060   Biso      1.000     C          -0.010204000000000001         
         C33       1.0000    0.86320   0.68750   0.22230   Biso      1.000     C          -0.022006           
         C34       1.0000    0.93270   0.73920   0.21170   Biso      1.000     C          -0.11495799999999999          
         C35       1.0000    0.36260   0.62090   0.79840   Biso      1.000     C          0.597882  
         C36       1.0000    0.91230   0.81310   0.23060   Biso      1.000     C          -0.010204000000000001         
         C37       1.0000    0.82220   0.83400   0.25140   Biso      1.000     C          -0.154254           
         C38       1.0000    0.56690   0.73500   0.69930   Biso      1.000     C          -0.138603           
         C39       1.0000    0.75040   0.78210   0.26210   Biso      1.000     C          0.084342  
         C40       1.0000    0.77370   0.70840   0.24950   Biso      1.000     C          -0.145264           
         C41       1.0000    0.47640   0.71340   0.71150   Biso      1.000     C          -0.08830299999999999          
         C42       1.0000    0.88530   0.60710   0.19640   Biso      1.000     C          0.622159  
         C43       1.0000    0.99160   0.86850   0.23540   Biso      1.000     C          0.5883520000000001  
         C44       1.0000    0.65090   0.80520   0.27850   Biso      1.000     C          0.069989  
         C45       1.0000    0.63900   0.86970   0.36680   Biso      1.000     C          -0.153174           
         C46       1.0000    0.93270   0.76080   0.71170   Biso      1.000     C          -0.11495799999999999          
         C47       1.0000    0.46280   0.64770   0.79550   Biso      1.000     C          -0.02375  
         C48       1.0000    0.54730   0.60740   0.87480   Biso      1.000     C          -0.097088           
         C49       1.0000    0.46280   0.85230   0.29550   Biso      1.000     C          -0.023748           
         C50       1.0000    0.47640   0.78660   0.21150   Biso      1.000     C          -0.088315           
         C51       1.0000    0.63900   0.63030   0.86680   Biso      1.000     C          -0.15317  
         C52       1.0000    0.56690   0.76500   0.19930   Biso      1.000     C          -0.13859100000000002          
         C53       1.0000    0.65090   0.69480   0.77850   Biso      1.000     C          0.069991  
         C54       1.0000    0.36260   0.87910   0.29840   Biso      1.000     C          0.597881  
         C55       1.0000    0.99160   0.63150   0.73540   Biso      1.000     C          0.5883520000000001  
         C56       1.0000    0.88530   0.89290   0.69640   Biso      1.000     C          0.622159  
         C57       1.0000    0.77370   0.79160   0.74950   Biso      1.000     C          -0.145264           
         C58       1.0000    0.75040   0.71790   0.76210   Biso      1.000     C          0.084342  
         C59       1.0000    0.82220   0.66600   0.75140   Biso      1.000     C          -0.154254           
         C60       1.0000    0.54730   0.89260   0.37480   Biso      1.000     C          -0.097084           
         Cd1       1.0000    0.81811   0.05892   0.72793   Biso      1.000     Cd          0.977158  
         Cd2       1.0000    0.81811   0.44108   0.22793   Biso      1.000     Cd          0.977158  
         Cd3       1.0000    0.18189   0.55892   0.77207   Biso      1.000     Cd          0.977158  
         Cd4       1.0000    0.00000   0.50000   0.00000   Biso      1.000     Cd          1.060961  
         Cd5       1.0000    0.18189   0.94108   0.27207   Biso      1.000     Cd          0.977158  
         Cd6       1.0000    0.00000   0.00000   0.50000   Biso      1.000     Cd          1.060961  
         H1        1.0000    0.99260   0.77480   0.69210   Biso      1.000     H          0.135436  
         H2        1.0000    0.69440   0.60270   0.92110   Biso      1.000     H          0.10510599999999999           
         H3        1.0000    0.72820   0.82720   0.75950   Biso      1.000     H          0.12923199999999999           
         H4        1.0000    0.54130   0.93570   0.43380   Biso      1.000     H          0.122378  
         H5        1.0000    0.54130   0.56430   0.93380   Biso      1.000     H          0.122379  
         H6        1.0000    0.80840   0.61660   0.75840   Biso      1.000     H          0.11673399999999999           
         H7        1.0000    0.69440   0.89730   0.42110   Biso      1.000     H          0.10510699999999999           
         H8        1.0000    0.72820   0.67280   0.25950   Biso      1.000     H          0.12923199999999999           
         H9        1.0000    0.00740   0.27480   0.80790   Biso      1.000     H          0.135436  
         H10       1.0000    0.19160   0.11660   0.74160   Biso      1.000     H          0.11673499999999999           
         H11       1.0000    0.00740   0.22520   0.30790   Biso      1.000     H          0.135436  
         H12       1.0000    0.19160   0.38340   0.24160   Biso      1.000     H          0.11673399999999999           
         H13       1.0000    0.42180   0.74270   0.66290   Biso      1.000     H          0.12096900000000001           
         H14       1.0000    0.80840   0.88340   0.25840   Biso      1.000     H          0.11673399999999999           
         H15       1.0000    0.57260   0.77720   0.63720   Biso      1.000     H          0.11075399999999999           
         H16       1.0000    0.99260   0.72520   0.19210   Biso      1.000     H          0.135436  
         H17       1.0000    0.57260   0.72280   0.13720   Biso      1.000     H          0.11075299999999999           
         H18       1.0000    0.42740   0.22280   0.36280   Biso      1.000     H          0.11075299999999999           
         H19       1.0000    0.27180   0.17280   0.24050   Biso      1.000     H          0.12923199999999999           
         H20       1.0000    0.42740   0.27720   0.86280   Biso      1.000     H          0.11075399999999999           
         H21       1.0000    0.30560   0.39730   0.07890   Biso      1.000     H          0.10510699999999999           
         H22       1.0000    0.57820   0.24270   0.83710   Biso      1.000     H          0.12096900000000001           
         H23       1.0000    0.45870   0.43570   0.06620   Biso      1.000     H          0.122378  
         H24       1.0000    0.57820   0.25730   0.33710   Biso      1.000     H          0.12097000000000001           
         H25       1.0000    0.45870   0.06430   0.56620   Biso      1.000     H          0.122378  
         H26       1.0000    0.42180   0.75730   0.16290   Biso      1.000     H          0.12097000000000001           
         H27       1.0000    0.30560   0.10270   0.57890   Biso      1.000     H          0.10510599999999999           
         H28       1.0000    0.27180   0.32720   0.74050   Biso      1.000     H          0.12923199999999999           
         O1        1.0000    0.29040   0.65840   0.73520   Biso      1.000     O          -0.562607           
         O2        1.0000    0.95840   0.90620   0.64110   Biso      1.000     O          -0.561391           
         O3        1.0000    0.97380   0.56480   0.74320   Biso      1.000     O          -0.621749           
         O4        1.0000    0.07720   0.65510   0.73720   Biso      1.000     O          -0.497003           
         O5        1.0000    0.35220   0.56010   0.85320   Biso      1.000     O          -0.573707           
         O6        1.0000    0.82680   0.93810   0.72900   Biso      1.000     O          -0.546918           
         O7        1.0000    0.64780   0.43990   0.14680   Biso      1.000     O          -0.573707           
         O8        1.0000    0.95840   0.59380   0.14110   Biso      1.000     O          -0.561391           
         O9        1.0000    0.02620   0.43520   0.25680   Biso      1.000     O          -0.621749           
         O10       1.0000    0.92280   0.34490   0.26280   Biso      1.000     O          -0.497003           
         O11       1.0000    0.04160   0.09380   0.35890   Biso      1.000     O          -0.561391           
         O12       1.0000    0.17320   0.06190   0.27100   Biso      1.000     O          -0.546918           
         O13       1.0000    0.17320   0.43810   0.77100   Biso      1.000     O          -0.546918           
         O14       1.0000    0.04160   0.40620   0.85890   Biso      1.000     O          -0.561391           
         O15       1.0000    0.82680   0.56190   0.22900   Biso      1.000     O          -0.546918           
         O16       1.0000    0.92280   0.15510   0.76280   Biso      1.000     O          -0.497003           
         O17       1.0000    0.64780   0.06010   0.64680   Biso      1.000     O          -0.573707           
         O18       1.0000    0.70960   0.15840   0.76480   Biso      1.000     O          -0.562608           
         O19       1.0000    0.70960   0.34160   0.26480   Biso      1.000     O          -0.562607           
         O20       1.0000    0.35220   0.93990   0.35320   Biso      1.000     O          -0.573707           
         O21       1.0000    0.97380   0.93520   0.24320   Biso      1.000     O          -0.621749           
         O22       1.0000    0.07720   0.84490   0.23720   Biso      1.000     O          -0.497003           
         O23       1.0000    0.02620   0.06480   0.75680   Biso      1.000     O          -0.621748           
         O24       1.0000    0.29040   0.84160   0.23520   Biso      1.000     O          -0.562607 