
##########################################################################
#               Crystallographic Information Format file
#               Produced by PyCifRW module
#
#  This is a CIF file.  CIF has been adopted by the International
#  Union of Crystallography as the standard for data archiving and
#  transmission.
#
#  For information on this file format, follow the CIF links at
#  http://www.iucr.org
##########################################################################

data_image0

_cell_length_a                          6.7338
_cell_length_b                          16.6903
_cell_length_c                          16.6903
_cell_angle_alpha                       87.6678
_cell_angle_beta                        78.3622
_cell_angle_gamma                       78.362
_symmetry_space_group_name_H-M          'P 1'
_symmetry_int_tables_number             1
loop_
  _symmetry_equiv_pos_as_xyz
         'x, y, z' 
loop_
  _atom_site_label
  _atom_site_occupancy
  _atom_site_fract_x
  _atom_site_fract_y
  _atom_site_fract_z
  _atom_site_thermal_displace_type
  _atom_site_B_iso_or_equiv
  _atom_site_type_symbol
  _atom_site_charge
         Ag1       1.0000    0.91632   0.89096   0.38256   Biso      1.000     Ag          0.368769  
         Ag2       1.0000    0.18984   0.60904   0.11744   Biso      1.000     Ag          0.369125  
         Ag3       1.0000    0.29888   0.11744   0.89096   Biso      1.000     Ag          0.368327  
         Ag4       1.0000    0.30728   0.38256   0.60904   Biso      1.000     Ag          0.368126  
         Ag5       1.0000    0.08368   0.10904   0.61744   Biso      1.000     Ag          0.368769  
         Ag6       1.0000    0.81016   0.39096   0.88256   Biso      1.000     Ag          0.369125  
         Ag7       1.0000    0.70112   0.88256   0.10904   Biso      1.000     Ag          0.368327  
         Ag8       1.0000    0.69272   0.61744   0.39096   Biso      1.000     Ag          0.368127  
         C1        1.0000    0.33490   0.96020   0.00240   Biso      1.000     C          -0.133192           
         C2        1.0000    0.66090   0.98170   0.93250   Biso      1.000     C          -0.15273  
         C3        1.0000    0.67550   0.14590   0.75390   Biso      1.000     C          -0.066197           
         C4        1.0000    0.57530   0.35410   0.74610   Biso      1.000     C          -0.064699           
         C5        1.0000    0.29750   0.53980   0.49760   Biso      1.000     C          -0.13378900000000002          
         C6        1.0000    0.57510   0.51830   0.56750   Biso      1.000     C          -0.152222           
         C7        1.0000    0.45150   0.92420   0.86080   Biso      1.000     C          -0.042461           
         C8        1.0000    0.23650   0.57580   0.63920   Biso      1.000     C          -0.048355           
         C9        1.0000    0.36230   0.92120   0.80820   Biso      1.000     C          -0.377709           
         C10       1.0000    0.31230   0.63920   0.92420   Biso      1.000     C          -0.045762           
         C11       1.0000    0.59340   0.56750   0.98170   Biso      1.000     C          -0.151109           
         C12       1.0000    0.33730   0.49760   0.96020   Biso      1.000     C          -0.131358           
         C13       1.0000    0.21650   0.19180   0.42120   Biso      1.000     C          -0.37450500000000003          
         C14       1.0000    0.17050   0.69180   0.92120   Biso      1.000     C          -0.374189           
         C15       1.0000    0.32140   0.75390   0.35410   Biso      1.000     C          -0.068088           
         C16       1.0000    0.14260   0.93250   0.51830   Biso      1.000     C          -0.153136           
         C17       1.0000    0.79510   0.00240   0.53980   Biso      1.000     C          -0.133127           
         C18       1.0000    0.87570   0.86080   0.57580   Biso      1.000     C          -0.049471           
         C19       1.0000    0.78350   0.80820   0.57880   Biso      1.000     C          -0.374362           
         C20       1.0000    0.42940   0.74610   0.14590   Biso      1.000     C          -0.066803           
         C21       1.0000    0.12430   0.13920   0.42420   Biso      1.000     C          -0.049326           
         C22       1.0000    0.09170   0.57880   0.69180   Biso      1.000     C          -0.37637600000000004          
         C23       1.0000    0.85740   0.06750   0.48170   Biso      1.000     C          -0.153139           
         C24       1.0000    0.20490   0.99760   0.46020   Biso      1.000     C          -0.13313  
         C25       1.0000    0.87760   0.25000   0.75000   Biso      1.000     C          -0.044755           
         C26       1.0000    0.37240   0.25000   0.75000   Biso      1.000     C          -0.045574           
         C27       1.0000    0.12240   0.75000   0.25000   Biso      1.000     C          -0.044755           
         C28       1.0000    0.42470   0.64590   0.25390   Biso      1.000     C          -0.064699           
         C29       1.0000    0.42490   0.48170   0.43250   Biso      1.000     C          -0.152222           
         C30       1.0000    0.70250   0.46020   0.50240   Biso      1.000     C          -0.13378900000000002          
         C31       1.0000    0.76350   0.42420   0.36080   Biso      1.000     C          -0.048356           
         C32       1.0000    0.90830   0.42120   0.30820   Biso      1.000     C          -0.37637600000000004          
         C33       1.0000    0.32450   0.85410   0.24610   Biso      1.000     C          -0.066197           
         C34       1.0000    0.62760   0.75000   0.25000   Biso      1.000     C          -0.045574           
         C35       1.0000    0.66510   0.03980   0.99760   Biso      1.000     C          -0.133195           
         C36       1.0000    0.33910   0.01830   0.06750   Biso      1.000     C          -0.15273299999999998          
         C37       1.0000    0.82950   0.30820   0.07880   Biso      1.000     C          -0.374349           
         C38       1.0000    0.68770   0.36080   0.07580   Biso      1.000     C          -0.045599           
         C39       1.0000    0.66270   0.50240   0.03980   Biso      1.000     C          -0.13136099999999998          
         C40       1.0000    0.67860   0.24610   0.64590   Biso      1.000     C          -0.068088           
         C41       1.0000    0.57060   0.25390   0.85410   Biso      1.000     C          -0.066803           
         C42       1.0000    0.63770   0.07880   0.19180   Biso      1.000     C          -0.377854           
         C43       1.0000    0.54850   0.07580   0.13920   Biso      1.000     C          -0.042314           
         C44       1.0000    0.40660   0.43250   0.01830   Biso      1.000     C          -0.151113           
         H1        1.0000    0.56540   0.12540   0.10840   Biso      1.000     H          0.106704  
         H2        1.0000    0.24270   0.88770   0.21090   Biso      1.000     H          0.112278  
         H3        1.0000    0.40520   0.08570   0.16730   Biso      1.000     H          0.10578699999999999           
         H4        1.0000    0.80730   0.03970   0.00090   Biso      1.000     H          0.12228399999999999           
         H5        1.0000    0.60190   0.09480   0.98360   Biso      1.000     H          0.082505  
         H6        1.0000    0.27440   0.07310   0.05390   Biso      1.000     H          0.09709   
         H7        1.0000    0.26010   0.00310   0.11930   Biso      1.000     H          0.112889  
         H8        1.0000    0.37290   0.89030   0.27850   Biso      1.000     H          0.11299100000000001           
         H9        1.0000    0.66800   0.79000   0.28600   Biso      1.000     H          0.108107  
         H10       1.0000    0.84790   0.46030   0.49910   Biso      1.000     H          0.12213299999999999           
         H11       1.0000    0.01080   0.37770   0.32490   Biso      1.000     H          0.142874  
         H12       1.0000    0.79920   0.37460   0.39160   Biso      1.000     H          0.10825699999999999           
         H13       1.0000    0.65820   0.41430   0.33270   Biso      1.000     H          0.108787  
         H14       1.0000    0.68030   0.40520   0.51640   Biso      1.000     H          0.083393  
         H15       1.0000    0.40140   0.42690   0.44610   Biso      1.000     H          0.096437  
         H16       1.0000    0.38250   0.49690   0.38070   Biso      1.000     H          0.112903  
         H17       1.0000    0.34130   0.61230   0.28910   Biso      1.000     H          0.11264400000000001           
         H18       1.0000    0.74400   0.71000   0.21400   Biso      1.000     H          0.10775   
         H19       1.0000    0.71340   0.12230   0.17510   Biso      1.000     H          0.143351  
         H20       1.0000    0.86810   0.39910   0.26230   Biso      1.000     H          0.16172899999999998           
         H21       1.0000    0.52950   0.10090   0.23770   Biso      1.000     H          0.16245   
         H22       1.0000    0.54170   0.60970   0.22150   Biso      1.000     H          0.11295699999999999           
         H23       1.0000    0.45360   0.28910   0.88770   Biso      1.000     H          0.11289300000000001           
         H24       1.0000    0.73990   0.99690   0.88070   Biso      1.000     H          0.11289   
         H25       1.0000    0.72560   0.92690   0.94610   Biso      1.000     H          0.09709   
         H26       1.0000    0.39810   0.90520   0.01640   Biso      1.000     H          0.082506  
         H27       1.0000    0.19270   0.96030   0.99910   Biso      1.000     H          0.12228399999999999           
         H28       1.0000    0.59480   0.91430   0.83270   Biso      1.000     H          0.105794  
         H29       1.0000    0.43460   0.87460   0.89160   Biso      1.000     H          0.10671099999999999           
         H30       1.0000    0.28660   0.87770   0.82490   Biso      1.000     H          0.143343  
         H31       1.0000    0.47050   0.89910   0.76230   Biso      1.000     H          0.162444  
         H32       1.0000    0.04600   0.78600   0.21000   Biso      1.000     H          0.108122  
         H33       1.0000    0.54640   0.71090   0.11230   Biso      1.000     H          0.11289300000000001           
         H34       1.0000    0.34860   0.77850   0.10970   Biso      1.000     H          0.11257   
         H35       1.0000    0.62060   0.61930   0.99690   Biso      1.000     H          0.111479  
         H36       1.0000    0.67170   0.55390   0.92690   Biso      1.000     H          0.09713   
         H37       1.0000    0.41450   0.48360   0.90520   Biso      1.000     H          0.081206  
         H38       1.0000    0.62710   0.10970   0.72150   Biso      1.000     H          0.11299200000000001           
         H39       1.0000    0.19180   0.50090   0.96030   Biso      1.000     H          0.12128599999999999           
         H40       1.0000    0.32620   0.60840   0.87460   Biso      1.000     H          0.107188  
         H41       1.0000    0.11150   0.67510   0.87770   Biso      1.000     H          0.14346099999999998           
         H42       1.0000    0.23280   0.73770   0.89910   Biso      1.000     H          0.160616  
         H43       1.0000    0.04200   0.71400   0.29000   Biso      1.000     H          0.108001  
         H44       1.0000    0.95400   0.21400   0.79000   Biso      1.000     H          0.108122  
         H45       1.0000    0.23680   0.72150   0.39030   Biso      1.000     H          0.114159  
         H46       1.0000    0.23680   0.88070   0.50310   Biso      1.000     H          0.112567  
         H47       1.0000    0.15250   0.94610   0.57310   Biso      1.000     H          0.09792200000000001           
         H48       1.0000    0.80330   0.01640   0.59480   Biso      1.000     H          0.081773  
         H49       1.0000    0.65300   0.99910   0.53970   Biso      1.000     H          0.12204000000000001           
         H50       1.0000    0.00910   0.83270   0.58570   Biso      1.000     H          0.107893  
         H51       1.0000    0.80920   0.89160   0.62540   Biso      1.000     H          0.10869200000000001           
         H52       1.0000    0.66430   0.82490   0.62230   Biso      1.000     H          0.142573  
         H53       1.0000    0.86960   0.76230   0.60090   Biso      1.000     H          0.161417  
         H54       1.0000    0.42750   0.66730   0.91430   Biso      1.000     H          0.106502  
         H55       1.0000    0.75730   0.11230   0.78910   Biso      1.000     H          0.112278  
         H56       1.0000    0.36960   0.78910   0.38770   Biso      1.000     H          0.113051  
         H57       1.0000    0.13190   0.60090   0.73770   Biso      1.000     H          0.16172899999999998           
         H58       1.0000    0.33200   0.21000   0.71400   Biso      1.000     H          0.108107  
         H59       1.0000    0.37940   0.38070   0.00310   Biso      1.000     H          0.111478  
         H60       1.0000    0.32830   0.44610   0.07310   Biso      1.000     H          0.097129  
         H61       1.0000    0.58550   0.51640   0.09480   Biso      1.000     H          0.081205  
         H62       1.0000    0.80820   0.49910   0.03970   Biso      1.000     H          0.12128499999999999           
         H63       1.0000    0.57250   0.33270   0.08570   Biso      1.000     H          0.106494  
         H64       1.0000    0.67380   0.39160   0.12540   Biso      1.000     H          0.107181  
         H65       1.0000    0.88850   0.32490   0.12230   Biso      1.000     H          0.143468  
         H66       1.0000    0.76720   0.26230   0.10090   Biso      1.000     H          0.160623  
         H67       1.0000    0.95800   0.28600   0.71000   Biso      1.000     H          0.108001  
         H68       1.0000    0.63040   0.21090   0.61230   Biso      1.000     H          0.113051  
         H69       1.0000    0.76320   0.27850   0.60970   Biso      1.000     H          0.114159  
         H70       1.0000    0.76320   0.11930   0.49690   Biso      1.000     H          0.112567  
         H71       1.0000    0.84750   0.05390   0.42690   Biso      1.000     H          0.09792100000000001           
         H72       1.0000    0.19670   0.98360   0.40520   Biso      1.000     H          0.081773  
         H73       1.0000    0.65140   0.22150   0.89030   Biso      1.000     H          0.11257   
         H74       1.0000    0.99090   0.16730   0.41430   Biso      1.000     H          0.107886  
         H75       1.0000    0.34700   0.00090   0.46030   Biso      1.000     H          0.12204000000000001           
         H76       1.0000    0.20080   0.62540   0.60840   Biso      1.000     H          0.10825699999999999           
         H77       1.0000    0.34180   0.58570   0.66730   Biso      1.000     H          0.108787  
         H78       1.0000    0.15210   0.53970   0.50090   Biso      1.000     H          0.12213299999999999           
         H79       1.0000    0.31970   0.59480   0.48360   Biso      1.000     H          0.083393  
         H80       1.0000    0.59860   0.57310   0.55390   Biso      1.000     H          0.096437  
         H81       1.0000    0.61750   0.50310   0.61930   Biso      1.000     H          0.112903  
         H82       1.0000    0.98920   0.62230   0.67510   Biso      1.000     H          0.142874  
         H83       1.0000    0.65870   0.38770   0.71090   Biso      1.000     H          0.11264400000000001           
         H84       1.0000    0.19080   0.10840   0.37460   Biso      1.000     H          0.10868599999999999           
         H85       1.0000    0.33570   0.17510   0.37770   Biso      1.000     H          0.14257999999999998           
         H86       1.0000    0.45830   0.39030   0.77850   Biso      1.000     H          0.11295699999999999           
         H87       1.0000    0.25600   0.29000   0.78600   Biso      1.000     H          0.10775   
         H88       1.0000    0.13040   0.23770   0.39910   Biso      1.000     H          0.161424  
         N1        1.0000    0.50110   0.69900   0.30540   Biso      1.000     N          -0.12493199999999999          
         N2        1.0000    0.64770   0.48290   0.42430   Biso      1.000     N          -0.07309700000000001          
         N3        1.0000    0.50550   0.80100   0.19460   Biso      1.000     N          -0.12398699999999999          
         N4        1.0000    0.55490   0.01710   0.07570   Biso      1.000     N          -0.074114           
         N5        1.0000    0.49450   0.19900   0.80540   Biso      1.000     N          -0.12398699999999999          
         N6        1.0000    0.63060   0.42430   0.01710   Biso      1.000     N          -0.072779           
         N7        1.0000    0.80650   0.19460   0.69900   Biso      1.000     N          -0.124324           
         N8        1.0000    0.07200   0.07570   0.48290   Biso      1.000     N          -0.071615           
         N9        1.0000    0.49890   0.30100   0.69460   Biso      1.000     N          -0.12493199999999999          
         N10       1.0000    0.35230   0.51710   0.57570   Biso      1.000     N          -0.07309700000000001          
         N11       1.0000    0.70010   0.30540   0.80100   Biso      1.000     N          -0.126331           
         N12       1.0000    0.44510   0.98290   0.92430   Biso      1.000     N          -0.074103           
         N13       1.0000    0.36940   0.57570   0.98290   Biso      1.000     N          -0.072767           
         N14       1.0000    0.19350   0.80540   0.30100   Biso      1.000     N          -0.124324           
         N15       1.0000    0.92800   0.92430   0.51710   Biso      1.000     N          -0.071604           
         N16       1.0000    0.29990   0.69460   0.19900   Biso      1.000     N          -0.126331           
         O1        1.0000    0.96980   0.44110   0.67730   Biso      1.000     O          -0.621368           
         O2        1.0000    0.73460   0.54500   0.75800   Biso      1.000     O          -0.638366           
         O3        1.0000    0.03220   0.47900   0.80820   Biso      1.000     O          -0.624128           
         O4        1.0000    0.35290   0.17730   0.55890   Biso      1.000     O          -0.621793           
         O5        1.0000    0.50740   0.25800   0.45500   Biso      1.000     O          -0.639113           
         O6        1.0000    0.03020   0.55890   0.32270   Biso      1.000     O          -0.621368           
         O7        1.0000    0.68060   0.97900   0.30820   Biso      1.000     O          -0.6244569999999999           
         O8        1.0000    0.96240   0.04500   0.25800   Biso      1.000     O          -0.638824           
         O9        1.0000    0.91180   0.94110   0.17730   Biso      1.000     O          -0.622255           
         O10       1.0000    0.98880   0.19180   0.97900   Biso      1.000     O          -0.621455           
         O11       1.0000    0.22040   0.24200   0.04500   Biso      1.000     O          -0.639407           
         O12       1.0000    0.08910   0.32270   0.94110   Biso      1.000     O          -0.621235           
         O13       1.0000    0.15960   0.30820   0.52100   Biso      1.000     O          -0.622304           
         O14       1.0000    0.31940   0.02100   0.69180   Biso      1.000     O          -0.6244569999999999           
         O15       1.0000    0.03760   0.95500   0.74200   Biso      1.000     O          -0.638822           
         O16       1.0000    0.96780   0.52100   0.19180   Biso      1.000     O          -0.624128           
         O17       1.0000    0.01120   0.80820   0.02100   Biso      1.000     O          -0.621455           
         O18       1.0000    0.77960   0.75800   0.95500   Biso      1.000     O          -0.639406           
         O19       1.0000    0.91090   0.67730   0.05890   Biso      1.000     O          -0.621233           
         O20       1.0000    0.84040   0.69180   0.47900   Biso      1.000     O          -0.622304           
         O21       1.0000    0.49260   0.74200   0.54500   Biso      1.000     O          -0.639113           
         O22       1.0000    0.64710   0.82270   0.44110   Biso      1.000     O          -0.621792           
         O23       1.0000    0.26540   0.45500   0.24200   Biso      1.000     O          -0.638367           
         O24       1.0000    0.08820   0.05890   0.82270   Biso      1.000     O          -0.622254           
         S1        1.0000    0.81021   0.00610   0.23728   Biso      1.000     S          1.2439850000000001  
         S2        1.0000    0.04749   0.26272   0.00610   Biso      1.000     S          1.240215  
         S3        1.0000    0.31631   0.23728   0.49390   Biso      1.000     S          1.241394  
         S4        1.0000    0.94641   0.50610   0.73728   Biso      1.000     S          1.242575  
         S5        1.0000    0.18979   0.99390   0.76272   Biso      1.000     S          1.24397   
         S6        1.0000    0.95251   0.73728   0.99390   Biso      1.000     S          1.240198  
         S7        1.0000    0.68369   0.76272   0.50610   Biso      1.000     S          1.24138   
         S8        1.0000    0.05359   0.49390   0.26272   Biso      1.000     S          1.242575 