
##########################################################################
#               Crystallographic Information Format file
#               Produced by PyCifRW module
#
#  This is a CIF file.  CIF has been adopted by the International
#  Union of Crystallography as the standard for data archiving and
#  transmission.
#
#  For information on this file format, follow the CIF links at
#  http://www.iucr.org
##########################################################################

data_image0

_cell_length_a                          10.3973
_cell_length_b                          23.431
_cell_length_c                          6.927
_cell_angle_alpha                       90
_cell_angle_beta                        90
_cell_angle_gamma                       90
_symmetry_space_group_name_H-M          'P 1'
_symmetry_int_tables_number             1
loop_
  _symmetry_equiv_pos_as_xyz
         'x, y, z' 
loop_
  _atom_site_label
  _atom_site_occupancy
  _atom_site_fract_x
  _atom_site_fract_y
  _atom_site_fract_z
  _atom_site_thermal_displace_type
  _atom_site_B_iso_or_equiv
  _atom_site_type_symbol
  _atom_site_charge
         C1        1.0000    0.61600   0.75590   0.25000   Biso      1.000     C          -0.132447           
         C2        1.0000    0.74080   0.84870   0.25000   Biso      1.000     C          0.573465  
         C3        1.0000    0.61600   0.24410   0.75000   Biso      1.000     C          -0.132447           
         C4        1.0000    0.24080   0.65130   0.75000   Biso      1.000     C          0.573465  
         C5        1.0000    0.88400   0.74410   0.75000   Biso      1.000     C          -0.132447           
         C6        1.0000    0.11570   0.68460   0.75000   Biso      1.000     C          -0.0031   
         C7        1.0000    0.88430   0.68460   0.75000   Biso      1.000     C          -0.0031   
         C8        1.0000    0.75920   0.65130   0.75000   Biso      1.000     C          0.5734640000000001  
         C9        1.0000    0.61570   0.81540   0.25000   Biso      1.000     C          -0.003101           
         C10       1.0000    0.11600   0.74410   0.75000   Biso      1.000     C          -0.132447           
         C11       1.0000    0.25920   0.84870   0.25000   Biso      1.000     C          0.5734640000000001  
         C12       1.0000    0.38430   0.18460   0.75000   Biso      1.000     C          -0.003101           
         C13       1.0000    0.25920   0.15130   0.75000   Biso      1.000     C          0.5734640000000001  
         C14       1.0000    0.38430   0.81540   0.25000   Biso      1.000     C          -0.003101           
         C15       1.0000    0.50000   0.15470   0.75000   Biso      1.000     C          -0.125843           
         C16       1.0000    0.88400   0.25590   0.25000   Biso      1.000     C          -0.132447           
         C17       1.0000    0.38400   0.75590   0.25000   Biso      1.000     C          -0.132447           
         C18       1.0000    0.38400   0.24410   0.75000   Biso      1.000     C          -0.132447           
         C19       1.0000    0.88430   0.31540   0.25000   Biso      1.000     C          -0.003101           
         C20       1.0000    0.75920   0.34870   0.25000   Biso      1.000     C          0.573466  
         C21       1.0000    0.74080   0.15130   0.75000   Biso      1.000     C          0.5734640000000001  
         C22       1.0000    0.00000   0.83770   0.75000   Biso      1.000     C          0.295634  
         C23       1.0000    0.50000   0.84530   0.25000   Biso      1.000     C          -0.125842           
         C24       1.0000    0.50000   0.72640   0.25000   Biso      1.000     C          0.0474    
         C25       1.0000    0.61570   0.18460   0.75000   Biso      1.000     C          -0.0031   
         C26       1.0000    0.50000   0.66230   0.25000   Biso      1.000     C          0.295637  
         C27       1.0000    0.00000   0.77360   0.75000   Biso      1.000     C          0.047399000000000004          
         C28       1.0000    0.50000   0.33770   0.75000   Biso      1.000     C          0.295637  
         C29       1.0000    0.00000   0.22640   0.25000   Biso      1.000     C          0.0474    
         C30       1.0000    0.11600   0.25590   0.25000   Biso      1.000     C          -0.132447           
         C31       1.0000    0.00000   0.16230   0.25000   Biso      1.000     C          0.295637  
         C32       1.0000    0.11570   0.31540   0.25000   Biso      1.000     C          -0.003101           
         C33       1.0000    0.24080   0.34870   0.25000   Biso      1.000     C          0.573466  
         C34       1.0000    0.50000   0.27360   0.75000   Biso      1.000     C          0.0474    
         C35       1.0000    0.00000   0.34530   0.25000   Biso      1.000     C          -0.125842           
         C36       1.0000    0.00000   0.65470   0.75000   Biso      1.000     C          -0.125843           
         H1        1.0000    0.00000   0.61500   0.75000   Biso      1.000     H          0.138353  
         H2        1.0000    0.19340   0.76390   0.75000   Biso      1.000     H          0.13326500000000002           
         H3        1.0000    0.00000   0.38500   0.25000   Biso      1.000     H          0.138352  
         H4        1.0000    0.69340   0.26390   0.75000   Biso      1.000     H          0.13326500000000002           
         H5        1.0000    0.50000   0.88500   0.25000   Biso      1.000     H          0.138352  
         H6        1.0000    0.30660   0.73610   0.25000   Biso      1.000     H          0.13326500000000002           
         H7        1.0000    0.50000   0.11500   0.75000   Biso      1.000     H          0.138352  
         H8        1.0000    0.80660   0.23610   0.25000   Biso      1.000     H          0.13326500000000002           
         H9        1.0000    0.30660   0.26390   0.75000   Biso      1.000     H          0.13326500000000002           
         H10       1.0000    0.80660   0.76390   0.75000   Biso      1.000     H          0.13326500000000002           
         H11       1.0000    0.19340   0.23610   0.25000   Biso      1.000     H          0.13326500000000002           
         H12       1.0000    0.69340   0.73610   0.25000   Biso      1.000     H          0.13326500000000002           
         N1        1.0000    0.50000   0.42300   0.84200   Biso      1.000     N          -0.038761000000000004         
         N2        1.0000    0.50000   0.63073   0.09080   Biso      1.000     N          -0.226775           
         N3        1.0000    0.50000   0.36927   0.90920   Biso      1.000     N          -0.226731           
         N4        1.0000    0.00000   0.92300   0.84200   Biso      1.000     N          -0.038757           
         N5        1.0000    0.00000   0.86927   0.90920   Biso      1.000     N          -0.22673000000000001          
         N6        1.0000    0.50000   0.57700   0.34200   Biso      1.000     N          -0.038761000000000004         
         N7        1.0000    0.50000   0.63073   0.40920   Biso      1.000     N          -0.226731           
         N8        1.0000    0.00000   0.07700   0.34200   Biso      1.000     N          -0.038762           
         N9        1.0000    0.00000   0.13073   0.40920   Biso      1.000     N          -0.226731           
         N10       1.0000    0.50000   0.57700   0.15800   Biso      1.000     N          -0.038593999999999996         
         N11       1.0000    0.00000   0.92300   0.65800   Biso      1.000     N          -0.038624           
         N12       1.0000    0.00000   0.13073   0.09080   Biso      1.000     N          -0.226775           
         N13       1.0000    0.50000   0.36927   0.59080   Biso      1.000     N          -0.226775           
         N14       1.0000    0.50000   0.42300   0.65800   Biso      1.000     N          -0.038593           
         N15       1.0000    0.00000   0.86927   0.59080   Biso      1.000     N          -0.226746           
         N16       1.0000    0.00000   0.07700   0.15800   Biso      1.000     N          -0.038593           
         O1        1.0000    0.23690   0.40070   0.25000   Biso      1.000     O          -0.44368  
         O2        1.0000    0.34260   0.31970   0.25000   Biso      1.000     O          -0.536058           
         O3        1.0000    0.00000   0.04830   0.75000   Biso      1.000     O          -0.727012           
         O4        1.0000    0.50000   0.54830   0.75000   Biso      1.000     O          -0.727009           
         O5        1.0000    0.00000   0.95170   0.25000   Biso      1.000     O          -0.727011           
         O6        1.0000    0.50000   0.45170   0.25000   Biso      1.000     O          -0.727005           
         O7        1.0000    0.26310   0.90070   0.25000   Biso      1.000     O          -0.44367799999999996          
         O8        1.0000    0.84260   0.81970   0.25000   Biso      1.000     O          -0.5360590000000001           
         O9        1.0000    0.73690   0.90070   0.25000   Biso      1.000     O          -0.443679           
         O10       1.0000    0.65740   0.68030   0.75000   Biso      1.000     O          -0.536058           
         O11       1.0000    0.73690   0.09930   0.75000   Biso      1.000     O          -0.44367700000000004          
         O12       1.0000    0.84260   0.18030   0.75000   Biso      1.000     O          -0.536058           
         O13       1.0000    0.76310   0.59930   0.75000   Biso      1.000     O          -0.44367700000000004          
         O14       1.0000    0.15740   0.18030   0.75000   Biso      1.000     O          -0.536058           
         O15       1.0000    0.26310   0.09930   0.75000   Biso      1.000     O          -0.44367700000000004          
         O16       1.0000    0.76310   0.40070   0.25000   Biso      1.000     O          -0.44368100000000005          
         O17       1.0000    0.15740   0.81970   0.25000   Biso      1.000     O          -0.5360590000000001           
         O18       1.0000    0.65740   0.31970   0.25000   Biso      1.000     O          -0.5360590000000001           
         O19       1.0000    0.23690   0.59930   0.75000   Biso      1.000     O          -0.443679           
         O20       1.0000    0.34260   0.68030   0.75000   Biso      1.000     O          -0.536058           
         Zn1       1.0000    0.00000   0.86596   0.25000   Biso      1.000     Zn          0.8628040000000001  
         Zn2       1.0000    0.50000   0.63404   0.75000   Biso      1.000     Zn          0.8628049999999999  
         Zn3       1.0000    0.00000   0.00000   0.00000   Biso      1.000     Zn          0.856627  
         Zn4       1.0000    0.50000   0.50000   0.00000   Biso      1.000     Zn          0.856625  
         Zn5       1.0000    0.50000   0.50000   0.50000   Biso      1.000     Zn          0.8566239999999999  
         Zn6       1.0000    0.00000   0.00000   0.50000   Biso      1.000     Zn          0.8566299999999999  
         Zn7       1.0000    0.00000   0.13404   0.75000   Biso      1.000     Zn          0.8628049999999999  
         Zn8       1.0000    0.50000   0.36596   0.25000   Biso      1.000     Zn          0.8628049999999999 