
##########################################################################
#               Crystallographic Information Format file
#               Produced by PyCifRW module
#
#  This is a CIF file.  CIF has been adopted by the International
#  Union of Crystallography as the standard for data archiving and
#  transmission.
#
#  For information on this file format, follow the CIF links at
#  http://www.iucr.org
##########################################################################

data_image0

_cell_length_a                          13.592
_cell_length_b                          14.082
_cell_length_c                          16.313
_cell_angle_alpha                       98.7237
_cell_angle_beta                        114.62
_cell_angle_gamma                       90
_symmetry_space_group_name_H-M          'P 1'
_symmetry_int_tables_number             1
loop_
  _symmetry_equiv_pos_as_xyz
         'x, y, z' 
loop_
  _atom_site_label
  _atom_site_occupancy
  _atom_site_fract_x
  _atom_site_fract_y
  _atom_site_fract_z
  _atom_site_thermal_displace_type
  _atom_site_B_iso_or_equiv
  _atom_site_type_symbol
  _atom_site_charge
         C1        1.0000    0.67640   0.88330   0.04100   Biso      1.000     C          0.16514700000000002           
         C2        1.0000    0.56230   0.32510   0.29140   Biso      1.000     C          0.156798  
         C3        1.0000    0.66330   0.37880   0.34520   Biso      1.000     C          -0.16228900000000002          
         C4        1.0000    0.68230   0.29960   0.47120   Biso      1.000     C          -0.119817           
         C5        1.0000    0.43790   0.35760   0.12680   Biso      1.000     C          -0.092321           
         C6        1.0000    0.15550   0.48210   0.79400   Biso      1.000     C          0.5952930000000001  
         C7        1.0000    0.54810   0.16600   0.45580   Biso      1.000     C          0.6811649999999999  
         C8        1.0000    0.72240   0.36560   0.43540   Biso      1.000     C          -0.023629           
         C9        1.0000    0.58820   0.24270   0.41740   Biso      1.000     C          -0.01952  
         C10       1.0000    0.22970   0.44330   0.88040   Biso      1.000     C          -0.004903           
         C11       1.0000    0.66850   0.92870   0.49540   Biso      1.000     C          0.658505  
         C12       1.0000    0.56770   0.93990   0.90140   Biso      1.000     C          -0.10544500000000001          
         C13       1.0000    0.74210   0.90490   0.93140   Biso      1.000     C          -0.10654000000000001          
         C14       1.0000    0.75380   0.87940   0.01260   Biso      1.000     C          -0.141305           
         C15       1.0000    0.58210   0.90880   0.98160   Biso      1.000     C          -0.139035           
         C16       1.0000    0.70400   0.84140   0.20040   Biso      1.000     C          -0.109803           
         C17       1.0000    0.79990   0.75540   0.32860   Biso      1.000     C          -0.140766           
         C18       1.0000    0.72910   0.82510   0.29140   Biso      1.000     C          0.157228  
         C19       1.0000    0.68190   0.87880   0.34520   Biso      1.000     C          -0.16198099999999999          
         C20       1.0000    0.78890   0.79960   0.47120   Biso      1.000     C          -0.120499           
         C21       1.0000    0.63850   0.98210   0.79400   Biso      1.000     C          0.594386  
         C22       1.0000    0.90770   0.66600   0.45580   Biso      1.000     C          0.6812060000000001  
         C23       1.0000    0.52870   0.25540   0.32860   Biso      1.000     C          -0.141236           
         C24       1.0000    0.71300   0.86560   0.43540   Biso      1.000     C          -0.022478           
         C25       1.0000    0.49640   0.34140   0.20040   Biso      1.000     C          -0.10895099999999999          
         C26       1.0000    0.36460   0.38330   0.04100   Biso      1.000     C          0.163921  
         C27       1.0000    0.33150   0.07130   0.50460   Biso      1.000     C          0.658505  
         C28       1.0000    0.43230   0.06010   0.09860   Biso      1.000     C          -0.10544400000000001          
         C29       1.0000    0.25790   0.09510   0.06860   Biso      1.000     C          -0.10653399999999999          
         C30       1.0000    0.24620   0.12060   0.98740   Biso      1.000     C          -0.141348           
         C31       1.0000    0.32360   0.11670   0.95900   Biso      1.000     C          0.165186  
         C32       1.0000    0.41790   0.09120   0.01840   Biso      1.000     C          -0.13903900000000002          
         C33       1.0000    0.29600   0.15860   0.79960   Biso      1.000     C          -0.109802           
         C34       1.0000    0.20010   0.24460   0.67140   Biso      1.000     C          -0.140766           
         C35       1.0000    0.27090   0.17490   0.70860   Biso      1.000     C          0.157227  
         C36       1.0000    0.31810   0.12120   0.65480   Biso      1.000     C          -0.16198099999999999          
         C37       1.0000    0.21110   0.20040   0.52880   Biso      1.000     C          -0.1205   
         C38       1.0000    0.31110   0.14240   0.87320   Biso      1.000     C          -0.092079           
         C39       1.0000    0.36150   0.01790   0.20600   Biso      1.000     C          0.594386  
         C40       1.0000    0.09230   0.33400   0.54420   Biso      1.000     C          0.6812060000000001  
         C41       1.0000    0.28700   0.13440   0.56460   Biso      1.000     C          -0.022478           
         C42       1.0000    0.17080   0.25730   0.58260   Biso      1.000     C          -0.019184           
         C43       1.0000    0.34930   0.05670   0.11960   Biso      1.000     C          -0.003682           
         C44       1.0000    0.82690   0.42870   0.49540   Biso      1.000     C          0.660825  
         C45       1.0000    0.33370   0.43990   0.90140   Biso      1.000     C          -0.10444200000000001          
         C46       1.0000    0.18930   0.40490   0.93140   Biso      1.000     C          -0.106423           
         C47       1.0000    0.25880   0.37940   0.01260   Biso      1.000     C          -0.139976           
         C48       1.0000    0.39950   0.40880   0.98160   Biso      1.000     C          -0.13976  
         C49       1.0000    0.82920   0.74270   0.41740   Biso      1.000     C          -0.019184           
         C50       1.0000    0.68890   0.85760   0.12680   Biso      1.000     C          -0.092075           
         C51       1.0000    0.17310   0.57130   0.50460   Biso      1.000     C          0.660825  
         C52       1.0000    0.65070   0.94330   0.88040   Biso      1.000     C          -0.003682           
         C53       1.0000    0.77030   0.55670   0.11960   Biso      1.000     C          -0.004903           
         C54       1.0000    0.41180   0.75730   0.58260   Biso      1.000     C          -0.019522           
         C55       1.0000    0.27760   0.63440   0.56460   Biso      1.000     C          -0.023629           
         C56       1.0000    0.84450   0.51790   0.20600   Biso      1.000     C          0.595292  
         C57       1.0000    0.56210   0.64240   0.87320   Biso      1.000     C          -0.092323           
         C58       1.0000    0.31770   0.70040   0.52880   Biso      1.000     C          -0.119814           
         C59       1.0000    0.33670   0.62120   0.65480   Biso      1.000     C          -0.16228900000000002          
         C60       1.0000    0.45190   0.83400   0.54420   Biso      1.000     C          0.6811649999999999  
         C61       1.0000    0.47130   0.74460   0.67140   Biso      1.000     C          -0.141236           
         C62       1.0000    0.66630   0.56010   0.09860   Biso      1.000     C          -0.104439           
         C63       1.0000    0.50360   0.65860   0.79960   Biso      1.000     C          -0.10895  
         C64       1.0000    0.60050   0.59120   0.01840   Biso      1.000     C          -0.139787           
         C65       1.0000    0.63540   0.61670   0.95900   Biso      1.000     C          0.163946  
         C66       1.0000    0.74120   0.62060   0.98740   Biso      1.000     C          -0.139984           
         C67       1.0000    0.81070   0.59510   0.06860   Biso      1.000     C          -0.10641800000000001          
         C68       1.0000    0.43770   0.67490   0.70860   Biso      1.000     C          0.156797  
         H1        1.0000    0.82000   0.85830   0.04960   Biso      1.000     H          0.108376  
         H2        1.0000    0.52230   0.90540   0.99520   Biso      1.000     H          0.10522100000000001           
         H3        1.0000    0.82750   0.71700   0.29260   Biso      1.000     H          0.1318    
         H4        1.0000    0.63080   0.92230   0.32060   Biso      1.000     H          0.13805499999999998           
         H5        1.0000    0.81290   0.79380   0.53240   Biso      1.000     H          0.130105  
         H6        1.0000    0.52710   0.59460   0.00480   Biso      1.000     H          0.10544200000000001           
         H7        1.0000    0.88530   0.60440   0.08840   Biso      1.000     H          0.12029400000000001           
         H8        1.0000    0.77040   0.64170   0.95040   Biso      1.000     H          0.107732  
         H9        1.0000    0.53490   0.78300   0.70740   Biso      1.000     H          0.132446  
         H10       1.0000    0.28050   0.70620   0.46760   Biso      1.000     H          0.130301  
         H11       1.0000    0.79690   0.89560   0.91160   Biso      1.000     H          0.120451  
         H12       1.0000    0.31020   0.57770   0.67940   Biso      1.000     H          0.138535  
         H13       1.0000    0.63750   0.54180   0.13700   Biso      1.000     H          0.121654  
         H14       1.0000    0.50050   0.95820   0.86300   Biso      1.000     H          0.12098699999999998           
         H15       1.0000    0.47290   0.40540   0.99520   Biso      1.000     H          0.10544   
         H16       1.0000    0.68980   0.42230   0.32060   Biso      1.000     H          0.138535  
         H17       1.0000    0.71950   0.29380   0.53240   Biso      1.000     H          0.130302  
         H18       1.0000    0.49950   0.04180   0.13700   Biso      1.000     H          0.12098699999999998           
         H19       1.0000    0.20310   0.10440   0.08840   Biso      1.000     H          0.12045   
         H20       1.0000    0.18000   0.14170   0.95040   Biso      1.000     H          0.108379  
         H21       1.0000    0.17250   0.28300   0.70740   Biso      1.000     H          0.1318    
         H22       1.0000    0.47770   0.09460   0.00480   Biso      1.000     H          0.105222  
         H23       1.0000    0.18710   0.20620   0.46760   Biso      1.000     H          0.130105  
         H24       1.0000    0.36250   0.45820   0.86300   Biso      1.000     H          0.121654  
         H25       1.0000    0.11470   0.39560   0.91160   Biso      1.000     H          0.12029400000000001           
         H26       1.0000    0.22960   0.35830   0.04960   Biso      1.000     H          0.107732  
         H27       1.0000    0.46510   0.21700   0.29260   Biso      1.000     H          0.132446  
         H28       1.0000    0.36920   0.07770   0.67940   Biso      1.000     H          0.13805499999999998           
         O1        1.0000    0.85200   0.44740   0.57980   Biso      1.000     O          -0.6144430000000001           
         O2        1.0000    0.54930   0.01340   0.74760   Biso      1.000     O          -0.6644100000000001           
         O3        1.0000    0.88070   0.45640   0.45860   Biso      1.000     O          -0.740839           
         O4        1.0000    0.60840   0.15510   0.53540   Biso      1.000     O          -0.70919  
         O5        1.0000    0.05670   0.47980   0.77040   Biso      1.000     O          -0.649668           
         O6        1.0000    0.42210   0.04360   0.54140   Biso      1.000     O          -0.739819           
         O7        1.0000    0.19830   0.51340   0.74760   Biso      1.000     O          -0.66457  
         O8        1.0000    0.28630   0.02020   0.22960   Biso      1.000     O          -0.649085           
         O9        1.0000    0.27220   0.05260   0.42020   Biso      1.000     O          -0.61354  
         O10       1.0000    0.07300   0.34490   0.46460   Biso      1.000     O          -0.709465           
         O11       1.0000    0.94150   0.61890   0.40300   Biso      1.000     O          -0.628666           
         O12       1.0000    0.46150   0.11890   0.40300   Biso      1.000     O          -0.629524           
         O13       1.0000    0.71370   0.97980   0.77040   Biso      1.000     O          -0.649085           
         O14       1.0000    0.45070   0.98660   0.25240   Biso      1.000     O          -0.6644100000000001           
         O15       1.0000    0.92700   0.65510   0.53540   Biso      1.000     O          -0.709465           
         O16       1.0000    0.57790   0.95640   0.45860   Biso      1.000     O          -0.739819           
         O17       1.0000    0.80170   0.48660   0.25240   Biso      1.000     O          -0.66457  
         O18       1.0000    0.53850   0.88110   0.59700   Biso      1.000     O          -0.629524           
         O19       1.0000    0.94330   0.52020   0.22960   Biso      1.000     O          -0.649668           
         O20       1.0000    0.14800   0.55260   0.42020   Biso      1.000     O          -0.6144430000000001           
         O21       1.0000    0.39160   0.84490   0.46460   Biso      1.000     O          -0.70919  
         O22       1.0000    0.11930   0.54360   0.54140   Biso      1.000     O          -0.740839           
         O23       1.0000    0.05850   0.38110   0.59700   Biso      1.000     O          -0.628666           
         O24       1.0000    0.72780   0.94740   0.57980   Biso      1.000     O          -0.6135390000000001           
         Tb1       1.0000    0.98006   0.45851   0.37141   Biso      1.000     Tb          2.056518  
         Tb2       1.0000    0.60865   0.04149   0.62859   Biso      1.000     Tb          2.05689   
         Tb3       1.0000    0.01994   0.54149   0.62859   Biso      1.000     Tb          2.056518  
         Tb4       1.0000    0.39135   0.95851   0.37141   Biso      1.000     Tb          2.05689 