
##########################################################################
#               Crystallographic Information Format file
#               Produced by PyCifRW module
#
#  This is a CIF file.  CIF has been adopted by the International
#  Union of Crystallography as the standard for data archiving and
#  transmission.
#
#  For information on this file format, follow the CIF links at
#  http://www.iucr.org
##########################################################################

data_image0

_cell_length_a                          6.77
_cell_length_b                          14.465
_cell_length_c                          17.773
_cell_angle_alpha                       90
_cell_angle_beta                        90
_cell_angle_gamma                       91.276
_symmetry_space_group_name_H-M          'P 1'
_symmetry_int_tables_number             1
loop_
  _symmetry_equiv_pos_as_xyz
         'x, y, z' 
loop_
  _atom_site_label
  _atom_site_occupancy
  _atom_site_fract_x
  _atom_site_fract_y
  _atom_site_fract_z
  _atom_site_thermal_displace_type
  _atom_site_B_iso_or_equiv
  _atom_site_type_symbol
  _atom_site_charge
         C1        1.0000    0.64800   0.29100   0.57300   Biso      1.000     C          0.581448  
         C2        1.0000    0.95600   0.38130   0.60060   Biso      1.000     C          -0.09332  
         C3        1.0000    0.65600   0.46410   0.57660   Biso      1.000     C          -0.116831           
         C4        1.0000    0.75800   0.54980   0.58310   Biso      1.000     C          -0.158031           
         C5        1.0000    0.96600   0.54900   0.59890   Biso      1.000     C          0.102851  
         C6        1.0000    0.07800   0.63980   0.60280   Biso      1.000     C          -0.062512           
         C7        1.0000    0.75900   0.37990   0.58810   Biso      1.000     C          -0.023889           
         C8        1.0000    0.35680   0.97190   0.61410   Biso      1.000     C          0.565868  
         C9        1.0000    0.27310   0.87750   0.88000   Biso      1.000     C          0.602163  
         C10       1.0000    0.23740   0.14750   0.29890   Biso      1.000     C          -0.014291           
         C11       1.0000    0.18120   0.08020   0.24490   Biso      1.000     C          -0.134048           
         C12       1.0000    0.19830   0.10000   0.16910   Biso      1.000     C          -0.003222           
         C13       1.0000    0.26430   0.18680   0.14550   Biso      1.000     C          -0.244131           
         C14       1.0000    0.31630   0.25360   0.19780   Biso      1.000     C          0.27446   
         C15       1.0000    0.05600   0.46570   0.61240   Biso      1.000     C          -0.136472           
         C16       1.0000    0.30300   0.23280   0.27530   Biso      1.000     C          -0.185645           
         C17       1.0000    0.14320   0.02810   0.11410   Biso      1.000     C          0.565869  
         C18       1.0000    0.85200   0.70900   0.07300   Biso      1.000     C          0.581449  
         C19       1.0000    0.74100   0.62010   0.08810   Biso      1.000     C          -0.023902           
         C20       1.0000    0.42200   0.36020   0.10280   Biso      1.000     C          -0.062512           
         C21       1.0000    0.53400   0.45100   0.09890   Biso      1.000     C          0.102851  
         C22       1.0000    0.74200   0.45020   0.08310   Biso      1.000     C          -0.158032           
         C23       1.0000    0.84400   0.53590   0.07660   Biso      1.000     C          -0.116831           
         C24       1.0000    0.54400   0.61870   0.10060   Biso      1.000     C          -0.093304           
         C25       1.0000    0.44400   0.53430   0.11240   Biso      1.000     C          -0.136474           
         C26       1.0000    0.26260   0.85250   0.79890   Biso      1.000     C          -0.014291           
         C27       1.0000    0.31880   0.91980   0.74490   Biso      1.000     C          -0.134047           
         C28       1.0000    0.30170   0.90000   0.66910   Biso      1.000     C          -0.003222           
         C29       1.0000    0.23570   0.81320   0.64550   Biso      1.000     C          -0.244131           
         C30       1.0000    0.22690   0.12250   0.38000   Biso      1.000     C          0.602163  
         C31       1.0000    0.76260   0.85250   0.70110   Biso      1.000     C          -0.014291           
         C32       1.0000    0.81880   0.91980   0.75510   Biso      1.000     C          -0.134047           
         C33       1.0000    0.80170   0.90000   0.83090   Biso      1.000     C          -0.003222           
         C34       1.0000    0.94400   0.53430   0.38760   Biso      1.000     C          -0.136472           
         C35       1.0000    0.04400   0.61870   0.39940   Biso      1.000     C          -0.093321           
         C36       1.0000    0.34400   0.53590   0.42340   Biso      1.000     C          -0.116831           
         C37       1.0000    0.24200   0.45020   0.41690   Biso      1.000     C          -0.158032           
         C38       1.0000    0.03400   0.45100   0.40110   Biso      1.000     C          0.102852  
         C39       1.0000    0.92200   0.36020   0.39720   Biso      1.000     C          -0.062513           
         C40       1.0000    0.24100   0.62010   0.41190   Biso      1.000     C          -0.023887           
         C41       1.0000    0.35200   0.70900   0.42700   Biso      1.000     C          0.581446  
         C42       1.0000    0.64320   0.02810   0.38590   Biso      1.000     C          0.565869  
         C43       1.0000    0.72690   0.12250   0.12000   Biso      1.000     C          0.602162  
         C44       1.0000    0.80300   0.23280   0.22470   Biso      1.000     C          -0.185651           
         C45       1.0000    0.81630   0.25360   0.30220   Biso      1.000     C          0.27446   
         C46       1.0000    0.76430   0.18680   0.35450   Biso      1.000     C          -0.24413  
         C47       1.0000    0.69830   0.10000   0.33090   Biso      1.000     C          -0.003224           
         C48       1.0000    0.68120   0.08020   0.25510   Biso      1.000     C          -0.134043           
         C49       1.0000    0.73740   0.14750   0.20110   Biso      1.000     C          -0.014284           
         C50       1.0000    0.55600   0.46570   0.88760   Biso      1.000     C          -0.136472           
         C51       1.0000    0.45600   0.38130   0.89940   Biso      1.000     C          -0.093321           
         C52       1.0000    0.15600   0.46410   0.92340   Biso      1.000     C          -0.116831           
         C53       1.0000    0.25800   0.54980   0.91690   Biso      1.000     C          -0.158032           
         C54       1.0000    0.46600   0.54900   0.90110   Biso      1.000     C          0.102852  
         C55       1.0000    0.57800   0.63980   0.89720   Biso      1.000     C          -0.062513           
         C56       1.0000    0.25900   0.37990   0.91190   Biso      1.000     C          -0.023888           
         C57       1.0000    0.14800   0.29100   0.92700   Biso      1.000     C          0.581446  
         C58       1.0000    0.85680   0.97190   0.88590   Biso      1.000     C          0.565869  
         C59       1.0000    0.77310   0.87750   0.62000   Biso      1.000     C          0.602163  
         C60       1.0000    0.69700   0.76720   0.72470   Biso      1.000     C          -0.185645           
         C61       1.0000    0.68370   0.74640   0.80220   Biso      1.000     C          0.274459  
         C62       1.0000    0.73570   0.81320   0.85450   Biso      1.000     C          -0.244128           
         C63       1.0000    0.18370   0.74640   0.69780   Biso      1.000     C          0.274461  
         C64       1.0000    0.19700   0.76720   0.77530   Biso      1.000     C          -0.185644           
         Cd1       1.0000    0.55700   0.86316   0.46745   Biso      1.000     Cd          0.977253  
         Cd2       1.0000    0.94300   0.13684   0.96745   Biso      1.000     Cd          0.977253  
         Cd3       1.0000    0.44300   0.13684   0.53255   Biso      1.000     Cd          0.977253  
         Cd4       1.0000    0.05700   0.86316   0.03255   Biso      1.000     Cd          0.977253  
         Cd5       1.0000    0.00000   0.00000   0.50000   Biso      1.000     Cd          1.09162   
         Cd6       1.0000    0.50000   0.00000   0.00000   Biso      1.000     Cd          1.09162   
         H1        1.0000    0.97470   0.67360   0.39850   Biso      1.000     H          0.122193  
         H2        1.0000    0.00120   0.68800   0.57960   Biso      1.000     H          0.093073  
         H3        1.0000    0.16100   0.72250   0.81060   Biso      1.000     H          0.142272  
         H4        1.0000    0.22660   0.80000   0.59440   Biso      1.000     H          0.13261   
         H5        1.0000    0.36730   0.97740   0.76040   Biso      1.000     H          0.135218  
         H6        1.0000    0.31460   0.53400   0.12960   Biso      1.000     H          0.121308  
         H7        1.0000    0.47470   0.67360   0.10150   Biso      1.000     H          0.122191  
         H8        1.0000    0.29780   0.36440   0.07630   Biso      1.000     H          0.094983  
         H9        1.0000    0.80690   0.39470   0.07720   Biso      1.000     H          0.126338  
         H10       1.0000    0.20220   0.63560   0.57630   Biso      1.000     H          0.094983  
         H11       1.0000    0.49880   0.31200   0.07960   Biso      1.000     H          0.093073  
         H12       1.0000    0.33900   0.27750   0.31060   Biso      1.000     H          0.142272  
         H13       1.0000    0.81460   0.53400   0.37040   Biso      1.000     H          0.121308  
         H14       1.0000    0.13270   0.02260   0.26040   Biso      1.000     H          0.135218  
         H15       1.0000    0.97780   0.53780   0.06490   Biso      1.000     H          0.109603  
         H16       1.0000    0.69310   0.60530   0.57720   Biso      1.000     H          0.126338  
         H17       1.0000    0.27340   0.20000   0.09440   Biso      1.000     H          0.13261   
         H18       1.0000    0.02530   0.32640   0.60150   Biso      1.000     H          0.122193  
         H19       1.0000    0.52220   0.46220   0.56490   Biso      1.000     H          0.109603  
         H20       1.0000    0.47780   0.53780   0.43510   Biso      1.000     H          0.109603  
         H21       1.0000    0.30690   0.39470   0.42280   Biso      1.000     H          0.126338  
         H22       1.0000    0.99880   0.31200   0.42040   Biso      1.000     H          0.093073  
         H23       1.0000    0.83900   0.27750   0.18940   Biso      1.000     H          0.142273  
         H24       1.0000    0.77340   0.20000   0.40560   Biso      1.000     H          0.13261   
         H25       1.0000    0.63270   0.02260   0.23960   Biso      1.000     H          0.135217  
         H26       1.0000    0.68540   0.46600   0.87040   Biso      1.000     H          0.121308  
         H27       1.0000    0.79780   0.36440   0.42370   Biso      1.000     H          0.094983  
         H28       1.0000    0.02220   0.46220   0.93510   Biso      1.000     H          0.109603  
         H29       1.0000    0.19310   0.60530   0.92280   Biso      1.000     H          0.126338  
         H30       1.0000    0.70220   0.63560   0.92370   Biso      1.000     H          0.094983  
         H31       1.0000    0.50120   0.68800   0.92040   Biso      1.000     H          0.093073  
         H32       1.0000    0.66100   0.72250   0.68940   Biso      1.000     H          0.142273  
         H33       1.0000    0.72660   0.80000   0.90560   Biso      1.000     H          0.132609  
         H34       1.0000    0.86730   0.97740   0.73960   Biso      1.000     H          0.135218  
         H35       1.0000    0.52530   0.32640   0.89850   Biso      1.000     H          0.122193  
         H36       1.0000    0.18540   0.46600   0.62960   Biso      1.000     H          0.121307  
         O1        1.0000    0.68450   0.82380   0.57490   Biso      1.000     O          -0.540517           
         O2        1.0000    0.81940   0.95910   0.95800   Biso      1.000     O          -0.65673  
         O3        1.0000    0.93480   0.04730   0.86490   Biso      1.000     O          -0.469824           
         O4        1.0000    0.61130   0.66050   0.82140   Biso      1.000     O          -0.188474           
         O5        1.0000    0.23700   0.22220   0.95190   Biso      1.000     O          -0.592078           
         O6        1.0000    0.68060   0.04090   0.45800   Biso      1.000     O          -0.65673  
         O7        1.0000    0.63420   0.04920   0.10330   Biso      1.000     O          -0.550015           
         O8        1.0000    0.81550   0.17620   0.07490   Biso      1.000     O          -0.540517           
         O9        1.0000    0.56520   0.95270   0.36490   Biso      1.000     O          -0.469824           
         O10       1.0000    0.88870   0.33950   0.32140   Biso      1.000     O          -0.188474           
         O11       1.0000    0.86580   0.95080   0.60330   Biso      1.000     O          -0.550014           
         O12       1.0000    0.96380   0.28750   0.92100   Biso      1.000     O          -0.557422           
         O13       1.0000    0.46380   0.28750   0.57900   Biso      1.000     O          -0.557422           
         O14       1.0000    0.38870   0.33950   0.17860   Biso      1.000     O          -0.188474           
         O15       1.0000    0.11130   0.66050   0.67860   Biso      1.000     O          -0.188474           
         O16       1.0000    0.43480   0.04730   0.63510   Biso      1.000     O          -0.469824           
         O17       1.0000    0.31940   0.95910   0.54200   Biso      1.000     O          -0.65673  
         O18       1.0000    0.18450   0.82380   0.92510   Biso      1.000     O          -0.540517           
         O19       1.0000    0.36580   0.95080   0.89670   Biso      1.000     O          -0.550014           
         O20       1.0000    0.03620   0.71250   0.07900   Biso      1.000     O          -0.557422           
         O21       1.0000    0.76300   0.77780   0.04810   Biso      1.000     O          -0.592079           
         O22       1.0000    0.06520   0.95270   0.13510   Biso      1.000     O          -0.469824           
         O23       1.0000    0.18060   0.04090   0.04200   Biso      1.000     O          -0.65673  
         O24       1.0000    0.31550   0.17620   0.42510   Biso      1.000     O          -0.540517           
         O25       1.0000    0.13420   0.04920   0.39670   Biso      1.000     O          -0.550014           
         O26       1.0000    0.26300   0.77780   0.45190   Biso      1.000     O          -0.592078           
         O27       1.0000    0.73700   0.22220   0.54810   Biso      1.000     O          -0.592078           
         O28       1.0000    0.53620   0.71250   0.42100   Biso      1.000     O          -0.557422 