
##########################################################################
#               Crystallographic Information Format file
#               Produced by PyCifRW module
#
#  This is a CIF file.  CIF has been adopted by the International
#  Union of Crystallography as the standard for data archiving and
#  transmission.
#
#  For information on this file format, follow the CIF links at
#  http://www.iucr.org
##########################################################################

data_image0

_cell_length_a                          9.3454
_cell_length_b                          9.8722
_cell_length_c                          12.7817
_cell_angle_alpha                       90
_cell_angle_beta                        90
_cell_angle_gamma                       90.8998
_symmetry_space_group_name_H-M          'P 1'
_symmetry_int_tables_number             1
loop_
  _symmetry_equiv_pos_as_xyz
         'x, y, z' 
loop_
  _atom_site_label
  _atom_site_occupancy
  _atom_site_fract_x
  _atom_site_fract_y
  _atom_site_fract_z
  _atom_site_thermal_displace_type
  _atom_site_B_iso_or_equiv
  _atom_site_type_symbol
  _atom_site_charge
         C1        1.0000    0.49060   0.28420   0.76510   Biso      1.000     C          0.543718  
         C2        1.0000    0.00940   0.21580   0.26510   Biso      1.000     C          0.543716  
         C3        1.0000    0.00250   0.75080   0.28330   Biso      1.000     C          0.545449  
         C4        1.0000    0.50940   0.71580   0.23490   Biso      1.000     C          0.54372   
         C5        1.0000    0.50250   0.25080   0.21670   Biso      1.000     C          0.5454479999999999  
         C6        1.0000    0.99060   0.78420   0.73490   Biso      1.000     C          0.543719  
         C7        1.0000    0.99750   0.24920   0.71670   Biso      1.000     C          0.545449  
         C8        1.0000    0.49750   0.74920   0.78330   Biso      1.000     C          0.545449  
         Cd1       1.0000    0.73676   0.98739   0.25382   Biso      1.000     Cd          0.789027  
         Cd2       1.0000    0.00000   0.50000   0.00000   Biso      1.000     Cd          0.669007  
         Cd3       1.0000    0.50000   0.00000   0.50000   Biso      1.000     Cd          0.669006  
         Cd4       1.0000    0.23676   0.48739   0.24618   Biso      1.000     Cd          0.789027  
         Cd5       1.0000    0.26324   0.01261   0.74618   Biso      1.000     Cd          0.789026  
         Cd6       1.0000    0.76324   0.51261   0.75382   Biso      1.000     Cd          0.789026  
         Cl1       1.0000    0.72129   0.50099   0.95728   Biso      1.000     Cl          -0.48795900000000003          
         Cl2       1.0000    0.77871   0.99901   0.45728   Biso      1.000     Cl          -0.487961           
         Cl3       1.0000    0.22129   0.00099   0.54272   Biso      1.000     Cl          -0.48796000000000006          
         Cl4       1.0000    0.27871   0.49901   0.04272   Biso      1.000     Cl          -0.487962           
         H1        1.0000    0.86450   0.78550   0.61280   Biso      1.000     H          0.338029  
         H2        1.0000    0.50630   0.35100   0.08570   Biso      1.000     H          0.335489  
         H3        1.0000    0.38470   0.76220   0.91070   Biso      1.000     H          0.344911  
         H4        1.0000    0.47550   0.40040   0.88840   Biso      1.000     H          0.33541   
         H5        1.0000    0.36450   0.28550   0.88720   Biso      1.000     H          0.338029  
         H6        1.0000    0.13550   0.21450   0.38720   Biso      1.000     H          0.33803   
         H7        1.0000    0.02450   0.09960   0.38840   Biso      1.000     H          0.33541   
         H8        1.0000    0.11530   0.73780   0.41070   Biso      1.000     H          0.344911  
         H9        1.0000    0.49370   0.64900   0.91430   Biso      1.000     H          0.335489  
         H10       1.0000    0.63550   0.71450   0.11280   Biso      1.000     H          0.33803   
         H11       1.0000    0.52450   0.59960   0.11160   Biso      1.000     H          0.33541   
         H12       1.0000    0.61530   0.23780   0.08930   Biso      1.000     H          0.344912  
         H13       1.0000    0.99370   0.14900   0.58570   Biso      1.000     H          0.335489  
         H14       1.0000    0.88470   0.26220   0.58930   Biso      1.000     H          0.344912  
         H15       1.0000    0.97550   0.90040   0.61160   Biso      1.000     H          0.33541   
         H16       1.0000    0.00630   0.85100   0.41430   Biso      1.000     H          0.335489  
         N1        1.0000    0.54650   0.28370   0.11930   Biso      1.000     N          -0.739391           
         N2        1.0000    0.56270   0.67140   0.14220   Biso      1.000     N          -0.742527           
         N3        1.0000    0.39640   0.31190   0.26860   Biso      1.000     N          -0.335516           
         N4        1.0000    0.38600   0.24500   0.35990   Biso      1.000     N          -0.08845599999999999          
         N5        1.0000    0.48010   0.15110   0.36280   Biso      1.000     N          -0.031902999999999994         
         N6        1.0000    0.55660   0.15080   0.27360   Biso      1.000     N          -0.348199           
         N7        1.0000    0.10270   0.83990   0.78420   Biso      1.000     N          -0.33417600000000003          
         N8        1.0000    0.01990   0.34890   0.86280   Biso      1.000     N          -0.031977           
         N9        1.0000    0.02630   0.66750   0.87140   Biso      1.000     N          -0.037732           
         N10       1.0000    0.93950   0.67670   0.78650   Biso      1.000     N          -0.34627399999999997          
         N11       1.0000    0.93730   0.82860   0.64220   Biso      1.000     N          -0.742528           
         N12       1.0000    0.10360   0.18810   0.76860   Biso      1.000     N          -0.335524           
         N13       1.0000    0.11400   0.25500   0.85990   Biso      1.000     N          -0.088386           
         N14       1.0000    0.56050   0.82330   0.28650   Biso      1.000     N          -0.346287           
         N15       1.0000    0.94340   0.34920   0.77360   Biso      1.000     N          -0.34819  
         N16       1.0000    0.95350   0.21630   0.61930   Biso      1.000     N          -0.739391           
         N17       1.0000    0.12220   0.76300   0.86980   Biso      1.000     N          -0.074401           
         N18       1.0000    0.47370   0.83250   0.37140   Biso      1.000     N          -0.03772  
         N19       1.0000    0.89640   0.81190   0.23140   Biso      1.000     N          -0.335516           
         N20       1.0000    0.39730   0.66010   0.28420   Biso      1.000     N          -0.33417600000000003          
         N21       1.0000    0.60270   0.33990   0.71580   Biso      1.000     N          -0.33416999999999997          
         N22       1.0000    0.62220   0.26300   0.63020   Biso      1.000     N          -0.074456           
         N23       1.0000    0.52630   0.16750   0.62860   Biso      1.000     N          -0.037673000000000005         
         N24       1.0000    0.43950   0.17670   0.71350   Biso      1.000     N          -0.346281           
         N25       1.0000    0.43730   0.32860   0.85780   Biso      1.000     N          -0.742528           
         N26       1.0000    0.60360   0.68810   0.73140   Biso      1.000     N          -0.335524           
         N27       1.0000    0.51990   0.84890   0.63720   Biso      1.000     N          -0.031978           
         N28       1.0000    0.44340   0.84920   0.72640   Biso      1.000     N          -0.348191           
         N29       1.0000    0.37780   0.73700   0.36980   Biso      1.000     N          -0.074402           
         N30       1.0000    0.45350   0.71630   0.88070   Biso      1.000     N          -0.739392           
         N31       1.0000    0.87780   0.23700   0.13020   Biso      1.000     N          -0.074477           
         N32       1.0000    0.97370   0.33250   0.12860   Biso      1.000     N          -0.037672000000000004         
         N33       1.0000    0.06050   0.32330   0.21350   Biso      1.000     N          -0.34628200000000003          
         N34       1.0000    0.06270   0.17140   0.35780   Biso      1.000     N          -0.742527           
         N35       1.0000    0.88600   0.74500   0.14010   Biso      1.000     N          -0.08845499999999999          
         N36       1.0000    0.98010   0.65110   0.13720   Biso      1.000     N          -0.031902999999999994         
         N37       1.0000    0.05660   0.65080   0.22640   Biso      1.000     N          -0.3482   
         N38       1.0000    0.04650   0.78370   0.38070   Biso      1.000     N          -0.739392           
         N39       1.0000    0.89730   0.16010   0.21580   Biso      1.000     N          -0.334148           
         N40       1.0000    0.61400   0.75500   0.64010   Biso      1.000     N          -0.088386 