
##########################################################################
#               Crystallographic Information Format file
#               Produced by PyCifRW module
#
#  This is a CIF file.  CIF has been adopted by the International
#  Union of Crystallography as the standard for data archiving and
#  transmission.
#
#  For information on this file format, follow the CIF links at
#  http://www.iucr.org
##########################################################################

data_image0

_cell_length_a                          27.2662
_cell_length_b                          11.5396
_cell_length_c                          13.9678
_cell_angle_alpha                       90
_cell_angle_beta                        90
_cell_angle_gamma                       90
_symmetry_space_group_name_H-M          'P 1'
_symmetry_int_tables_number             1
loop_
  _symmetry_equiv_pos_as_xyz
         'x, y, z' 
loop_
  _atom_site_label
  _atom_site_occupancy
  _atom_site_fract_x
  _atom_site_fract_y
  _atom_site_fract_z
  _atom_site_thermal_displace_type
  _atom_site_B_iso_or_equiv
  _atom_site_type_symbol
  _atom_site_charge
         C1        1.0000    0.85800   0.83340   0.61510   Biso      1.000     C          -0.078636           
         C2        1.0000    0.66810   0.50660   0.70900   Biso      1.000     C          -0.144819           
         C3        1.0000    0.70100   0.47100   0.86030   Biso      1.000     C          -0.154566           
         C4        1.0000    0.66020   0.40360   0.88190   Biso      1.000     C          -0.097502           
         C5        1.0000    0.62381   0.38580   0.81640   Biso      1.000     C          -0.011812           
         C6        1.0000    0.58053   0.30980   0.84140   Biso      1.000     C          0.572495  
         C7        1.0000    0.62920   0.43720   0.72950   Biso      1.000     C          -0.088226           
         C8        1.0000    0.57220   0.03710   0.16130   Biso      1.000     C          0.624687  
         C9        1.0000    0.70504   0.22230   0.22530   Biso      1.000     C          0.101662  
         C10       1.0000    0.79486   0.47680   0.27280   Biso      1.000     C          0.102917  
         C11       1.0000    0.61970   0.09880   0.18350   Biso      1.000     C          -0.021509           
         C12       1.0000    0.68410   0.22620   0.13540   Biso      1.000     C          -0.145789           
         C13       1.0000    0.64200   0.16660   0.11510   Biso      1.000     C          -0.078583           
         C14       1.0000    0.68240   0.15430   0.29430   Biso      1.000     C          -0.152174           
         C15       1.0000    0.64020   0.09320   0.27300   Biso      1.000     C          -0.094382           
         C16       1.0000    0.83190   0.49340   0.20900   Biso      1.000     C          -0.144784           
         C17       1.0000    0.85980   0.90680   0.77300   Biso      1.000     C          -0.094428           
         C18       1.0000    0.81760   0.84570   0.79430   Biso      1.000     C          -0.15218  
         C19       1.0000    0.75000   0.28950   0.25000   Biso      1.000     C          -0.049273           
         C20       1.0000    0.81590   0.77380   0.63540   Biso      1.000     C          -0.145806           
         C21       1.0000    0.29486   0.52320   0.77280   Biso      1.000     C          0.10289   
         C22       1.0000    0.11970   0.90120   0.68350   Biso      1.000     C          -0.021531           
         C23       1.0000    0.18410   0.77380   0.63540   Biso      1.000     C          -0.145788           
         C24       1.0000    0.14200   0.83340   0.61510   Biso      1.000     C          -0.078596           
         C25       1.0000    0.18240   0.84570   0.79430   Biso      1.000     C          -0.152157           
         C26       1.0000    0.14020   0.90680   0.77300   Biso      1.000     C          -0.094392           
         C27       1.0000    0.33190   0.50660   0.70900   Biso      1.000     C          -0.144799           
         C28       1.0000    0.79900   0.52900   0.36030   Biso      1.000     C          -0.154506           
         C29       1.0000    0.29900   0.47100   0.86030   Biso      1.000     C          -0.15454  
         C30       1.0000    0.37619   0.38580   0.81640   Biso      1.000     C          -0.011785           
         C31       1.0000    0.41947   0.30980   0.84140   Biso      1.000     C          0.572486  
         C32       1.0000    0.37080   0.43720   0.72950   Biso      1.000     C          -0.088204           
         C33       1.0000    0.92780   0.96290   0.66130   Biso      1.000     C          0.624682  
         C34       1.0000    0.79496   0.77770   0.72530   Biso      1.000     C          0.101724  
         C35       1.0000    0.70514   0.52320   0.77280   Biso      1.000     C          0.102937  
         C36       1.0000    0.88030   0.90120   0.68350   Biso      1.000     C          -0.021564           
         C37       1.0000    0.33980   0.40360   0.88190   Biso      1.000     C          -0.09747  
         C38       1.0000    0.20504   0.77770   0.72530   Biso      1.000     C          0.101701  
         C39       1.0000    0.83980   0.59640   0.38190   Biso      1.000     C          -0.097468           
         C40       1.0000    0.91947   0.69020   0.34140   Biso      1.000     C          0.57248   
         C41       1.0000    0.85800   0.16660   0.38490   Biso      1.000     C          -0.078598           
         C42       1.0000    0.81760   0.15430   0.20570   Biso      1.000     C          -0.152148           
         C43       1.0000    0.85980   0.09320   0.22700   Biso      1.000     C          -0.094396           
         C44       1.0000    0.66810   0.49340   0.29100   Biso      1.000     C          -0.144806           
         C45       1.0000    0.70100   0.52900   0.13970   Biso      1.000     C          -0.154537           
         C46       1.0000    0.66020   0.59640   0.11810   Biso      1.000     C          -0.097469           
         C47       1.0000    0.62381   0.61420   0.18360   Biso      1.000     C          -0.011782           
         C48       1.0000    0.58053   0.69020   0.15860   Biso      1.000     C          0.572482  
         C49       1.0000    0.62920   0.56280   0.27050   Biso      1.000     C          -0.088203           
         C50       1.0000    0.25000   0.28950   0.25000   Biso      1.000     C          -0.049277           
         C51       1.0000    0.25000   0.40660   0.25000   Biso      1.000     C          -0.046403           
         C52       1.0000    0.25000   0.71050   0.75000   Biso      1.000     C          -0.049275           
         C53       1.0000    0.25000   0.59340   0.75000   Biso      1.000     C          -0.0464   
         C54       1.0000    0.75000   0.71050   0.75000   Biso      1.000     C          -0.049341           
         C55       1.0000    0.75000   0.59340   0.75000   Biso      1.000     C          -0.046505           
         C56       1.0000    0.81590   0.22620   0.36460   Biso      1.000     C          -0.145773           
         C57       1.0000    0.88030   0.09880   0.31650   Biso      1.000     C          -0.021521           
         C58       1.0000    0.70514   0.47680   0.22720   Biso      1.000     C          0.102902  
         C59       1.0000    0.79496   0.22230   0.27470   Biso      1.000     C          0.101701  
         C60       1.0000    0.87080   0.56280   0.22950   Biso      1.000     C          -0.08822  
         C61       1.0000    0.57220   0.96290   0.83870   Biso      1.000     C          0.624686  
         C62       1.0000    0.70504   0.77770   0.77470   Biso      1.000     C          0.10168   
         C63       1.0000    0.79486   0.52320   0.72720   Biso      1.000     C          0.102948  
         C64       1.0000    0.61970   0.90120   0.81650   Biso      1.000     C          -0.021556           
         C65       1.0000    0.68410   0.77380   0.86460   Biso      1.000     C          -0.145822           
         C66       1.0000    0.64200   0.83340   0.88490   Biso      1.000     C          -0.078621           
         C67       1.0000    0.87619   0.61420   0.31640   Biso      1.000     C          -0.011799           
         C68       1.0000    0.68240   0.84570   0.70570   Biso      1.000     C          -0.15221  
         C69       1.0000    0.83190   0.50660   0.79100   Biso      1.000     C          -0.144794           
         C70       1.0000    0.79900   0.47100   0.63970   Biso      1.000     C          -0.154531           
         C71       1.0000    0.83980   0.40360   0.61810   Biso      1.000     C          -0.0975   
         C72       1.0000    0.87619   0.38580   0.68360   Biso      1.000     C          -0.011834           
         C73       1.0000    0.91947   0.30980   0.65860   Biso      1.000     C          0.572486  
         C74       1.0000    0.87080   0.43720   0.77050   Biso      1.000     C          -0.088234           
         C75       1.0000    0.92780   0.03710   0.33870   Biso      1.000     C          0.624681  
         C76       1.0000    0.64020   0.90680   0.72700   Biso      1.000     C          -0.09441  
         C77       1.0000    0.07220   0.96290   0.66130   Biso      1.000     C          0.62468   
         C78       1.0000    0.75000   0.40660   0.25000   Biso      1.000     C          -0.046392           
         C79       1.0000    0.31760   0.84570   0.70570   Biso      1.000     C          -0.152181           
         C80       1.0000    0.38030   0.09880   0.18350   Biso      1.000     C          -0.021511           
         C81       1.0000    0.20514   0.47680   0.27280   Biso      1.000     C          0.102919  
         C82       1.0000    0.29496   0.22230   0.22530   Biso      1.000     C          0.101661  
         C83       1.0000    0.42780   0.03710   0.16130   Biso      1.000     C          0.624682  
         C84       1.0000    0.12920   0.43720   0.77050   Biso      1.000     C          -0.08823  
         C85       1.0000    0.08053   0.30980   0.65860   Biso      1.000     C          0.572479  
         C86       1.0000    0.12381   0.38580   0.68360   Biso      1.000     C          -0.0118   
         C87       1.0000    0.16020   0.40360   0.61810   Biso      1.000     C          -0.097468           
         C88       1.0000    0.20100   0.47100   0.63970   Biso      1.000     C          -0.154524           
         C89       1.0000    0.16810   0.50660   0.79100   Biso      1.000     C          -0.144786           
         C90       1.0000    0.35980   0.90680   0.72700   Biso      1.000     C          -0.094393           
         C91       1.0000    0.35800   0.83340   0.88490   Biso      1.000     C          -0.078598           
         C92       1.0000    0.31590   0.77380   0.86460   Biso      1.000     C          -0.145789           
         C93       1.0000    0.38030   0.90120   0.81650   Biso      1.000     C          -0.021499           
         C94       1.0000    0.20514   0.52320   0.72720   Biso      1.000     C          0.102934  
         C95       1.0000    0.29496   0.77770   0.77470   Biso      1.000     C          0.101661  
         C96       1.0000    0.42780   0.96290   0.83870   Biso      1.000     C          0.624682  
         C97       1.0000    0.14200   0.16660   0.38490   Biso      1.000     C          -0.078611           
         C98       1.0000    0.37080   0.56280   0.27050   Biso      1.000     C          -0.088226           
         C99       1.0000    0.41947   0.69020   0.15860   Biso      1.000     C          0.572484  
         C100      1.0000    0.18240   0.15430   0.20570   Biso      1.000     C          -0.152158           
         C101      1.0000    0.37619   0.61420   0.18360   Biso      1.000     C          -0.011779           
         C102      1.0000    0.33980   0.59640   0.11810   Biso      1.000     C          -0.097475           
         C103      1.0000    0.29900   0.52900   0.13970   Biso      1.000     C          -0.15455  
         C104      1.0000    0.33190   0.49340   0.29100   Biso      1.000     C          -0.144799           
         C105      1.0000    0.31590   0.22620   0.13540   Biso      1.000     C          -0.145799           
         C106      1.0000    0.35800   0.16660   0.11510   Biso      1.000     C          -0.078595           
         C107      1.0000    0.14020   0.09320   0.22700   Biso      1.000     C          -0.094404           
         C108      1.0000    0.16020   0.59640   0.38190   Biso      1.000     C          -0.097484           
         C109      1.0000    0.12920   0.56280   0.22950   Biso      1.000     C          -0.088236           
         C110      1.0000    0.35980   0.09320   0.27300   Biso      1.000     C          -0.094391           
         C111      1.0000    0.12381   0.61420   0.31640   Biso      1.000     C          -0.011793           
         C112      1.0000    0.07220   0.03710   0.33870   Biso      1.000     C          0.624676  
         C113      1.0000    0.08053   0.69020   0.34140   Biso      1.000     C          0.572477  
         C114      1.0000    0.20504   0.22230   0.27470   Biso      1.000     C          0.101702  
         C115      1.0000    0.31760   0.15430   0.29430   Biso      1.000     C          -0.152181           
         C116      1.0000    0.29486   0.47680   0.22720   Biso      1.000     C          0.102905  
         C117      1.0000    0.20100   0.52900   0.36030   Biso      1.000     C          -0.154517           
         C118      1.0000    0.11970   0.09880   0.31650   Biso      1.000     C          -0.021522           
         C119      1.0000    0.16810   0.49340   0.20900   Biso      1.000     C          -0.144778           
         C120      1.0000    0.18410   0.22620   0.36460   Biso      1.000     C          -0.145783           
         H1        1.0000    0.62510   0.95370   0.67850   Biso      1.000     H          0.118751  
         H2        1.0000    0.19940   0.27160   0.41380   Biso      1.000     H          0.109373  
         H3        1.0000    0.15760   0.63110   0.44420   Biso      1.000     H          0.11018   
         H4        1.0000    0.69620   0.85040   0.64260   Biso      1.000     H          0.116717  
         H5        1.0000    0.37220   0.17220   0.05240   Biso      1.000     H          0.122447  
         H6        1.0000    0.62780   0.82780   0.94760   Biso      1.000     H          0.12243   
         H7        1.0000    0.69940   0.72840   0.91380   Biso      1.000     H          0.109346  
         H8        1.0000    0.19620   0.85040   0.85740   Biso      1.000     H          0.116761  
         H9        1.0000    0.22640   0.51910   0.40720   Biso      1.000     H          0.107923  
         H10       1.0000    0.12510   0.95370   0.82150   Biso      1.000     H          0.118777  
         H11       1.0000    0.30060   0.72840   0.91380   Biso      1.000     H          0.109361  
         H12       1.0000    0.60490   0.57610   0.31900   Biso      1.000     H          0.115523  
         H13       1.0000    0.12780   0.82780   0.55240   Biso      1.000     H          0.122442  
         H14       1.0000    0.83060   0.54480   0.85200   Biso      1.000     H          0.108788  
         H15       1.0000    0.39510   0.57610   0.31900   Biso      1.000     H          0.115521  
         H16       1.0000    0.77360   0.48090   0.59280   Biso      1.000     H          0.107917  
         H17       1.0000    0.12510   0.04630   0.17850   Biso      1.000     H          0.118774  
         H18       1.0000    0.80380   0.14960   0.14260   Biso      1.000     H          0.116772  
         H19       1.0000    0.87220   0.17220   0.44760   Biso      1.000     H          0.122448  
         H20       1.0000    0.33060   0.45520   0.35200   Biso      1.000     H          0.108792  
         H21       1.0000    0.80060   0.27160   0.41380   Biso      1.000     H          0.109386  
         H22       1.0000    0.27360   0.51910   0.09280   Biso      1.000     H          0.107901  
         H23       1.0000    0.10490   0.57610   0.18100   Biso      1.000     H          0.115512  
         H24       1.0000    0.34240   0.63110   0.05580   Biso      1.000     H          0.11018   
         H25       1.0000    0.66940   0.45520   0.35200   Biso      1.000     H          0.108802  
         H26       1.0000    0.19620   0.14960   0.14260   Biso      1.000     H          0.116758  
         H27       1.0000    0.72640   0.51910   0.09280   Biso      1.000     H          0.107913  
         H28       1.0000    0.89510   0.42390   0.81900   Biso      1.000     H          0.115492  
         H29       1.0000    0.19940   0.72840   0.58620   Biso      1.000     H          0.109376  
         H30       1.0000    0.84240   0.36890   0.55580   Biso      1.000     H          0.110169  
         H31       1.0000    0.65760   0.63110   0.05580   Biso      1.000     H          0.110194  
         H32       1.0000    0.12780   0.17220   0.44760   Biso      1.000     H          0.122441  
         H33       1.0000    0.89510   0.57610   0.18100   Biso      1.000     H          0.115515  
         H34       1.0000    0.69940   0.27160   0.08620   Biso      1.000     H          0.109371  
         H35       1.0000    0.34240   0.36890   0.94420   Biso      1.000     H          0.110183  
         H36       1.0000    0.87490   0.95370   0.82150   Biso      1.000     H          0.118754  
         H37       1.0000    0.30380   0.14960   0.35740   Biso      1.000     H          0.116738  
         H38       1.0000    0.66940   0.54480   0.64800   Biso      1.000     H          0.10878   
         H39       1.0000    0.72640   0.48090   0.90720   Biso      1.000     H          0.107895  
         H40       1.0000    0.65760   0.36890   0.94420   Biso      1.000     H          0.11017   
         H41       1.0000    0.87220   0.82780   0.55240   Biso      1.000     H          0.122423  
         H42       1.0000    0.10490   0.42390   0.81900   Biso      1.000     H          0.115517  
         H43       1.0000    0.60490   0.42390   0.68100   Biso      1.000     H          0.115502  
         H44       1.0000    0.37220   0.82780   0.94760   Biso      1.000     H          0.122449  
         H45       1.0000    0.37490   0.04630   0.32150   Biso      1.000     H          0.118773  
         H46       1.0000    0.39510   0.42390   0.68100   Biso      1.000     H          0.115525  
         H47       1.0000    0.15760   0.36890   0.55580   Biso      1.000     H          0.110182  
         H48       1.0000    0.87490   0.04630   0.17850   Biso      1.000     H          0.118783  
         H49       1.0000    0.22640   0.48090   0.59280   Biso      1.000     H          0.107926  
         H50       1.0000    0.80380   0.85040   0.85740   Biso      1.000     H          0.116737  
         H51       1.0000    0.27360   0.48090   0.90720   Biso      1.000     H          0.107903  
         H52       1.0000    0.69620   0.14960   0.35740   Biso      1.000     H          0.116753  
         H53       1.0000    0.16940   0.54480   0.85200   Biso      1.000     H          0.108804  
         H54       1.0000    0.62510   0.04630   0.32150   Biso      1.000     H          0.118782  
         H55       1.0000    0.30060   0.27160   0.08620   Biso      1.000     H          0.109358  
         H56       1.0000    0.16940   0.45520   0.14800   Biso      1.000     H          0.1088    
         H57       1.0000    0.80060   0.72840   0.58620   Biso      1.000     H          0.109361  
         H58       1.0000    0.30380   0.85040   0.64260   Biso      1.000     H          0.116742  
         H59       1.0000    0.83060   0.45520   0.14800   Biso      1.000     H          0.108811  
         H60       1.0000    0.37490   0.95370   0.67850   Biso      1.000     H          0.118777  
         H61       1.0000    0.62780   0.17220   0.05240   Biso      1.000     H          0.122455  
         H62       1.0000    0.77360   0.51910   0.40720   Biso      1.000     H          0.107935  
         H63       1.0000    0.33060   0.54480   0.64800   Biso      1.000     H          0.108795  
         H64       1.0000    0.84240   0.63110   0.44420   Biso      1.000     H          0.110193  
         Ni1       1.0000    0.50000   0.00000   0.00000   Biso      1.000     Ni          1.040949  
         Ni2       1.0000    0.00000   0.14970   0.71863   Biso      1.000     Ni          0.974313  
         Ni3       1.0000    0.50000   0.85030   0.21863   Biso      1.000     Ni          0.974333  
         Ni4       1.0000    0.50000   0.14970   0.78137   Biso      1.000     Ni          0.974331  
         Ni5       1.0000    0.00000   0.00000   0.50000   Biso      1.000     Ni          1.040915  
         Ni6       1.0000    0.00000   0.85030   0.28137   Biso      1.000     Ni          0.974334  
         O1        1.0000    0.05250   0.06230   0.41570   Biso      1.000     O          -0.460685           
         O2        1.0000    0.50000   0.15580   0.92950   Biso      1.000     O          -0.360968           
         O3        1.0000    0.50000   0.84420   0.07050   Biso      1.000     O          -0.36097  
         O4        1.0000    0.55343   0.72170   0.22580   Biso      1.000     O          -0.489489           
         O5        1.0000    0.57479   0.71470   0.07250   Biso      1.000     O          -0.368847           
         O6        1.0000    0.00000   0.15580   0.57050   Biso      1.000     O          -0.360988           
         O7        1.0000    0.00000   0.84420   0.42950   Biso      1.000     O          -0.360986           
         O8        1.0000    0.05617   0.03260   0.72180   Biso      1.000     O          -0.522211           
         O9        1.0000    0.94383   0.96740   0.27820   Biso      1.000     O          -0.522222           
         O10       1.0000    0.05250   0.93770   0.58430   Biso      1.000     O          -0.46068  
         O11       1.0000    0.05343   0.72170   0.27420   Biso      1.000     O          -0.489421           
         O12       1.0000    0.44657   0.27830   0.77420   Biso      1.000     O          -0.489481           
         O13       1.0000    0.42521   0.28530   0.92750   Biso      1.000     O          -0.368891           
         O14       1.0000    0.94383   0.03260   0.72180   Biso      1.000     O          -0.522198           
         O15       1.0000    0.94750   0.93770   0.58430   Biso      1.000     O          -0.460676           
         O16       1.0000    0.44750   0.06230   0.08430   Biso      1.000     O          -0.46073  
         O17       1.0000    0.44383   0.96740   0.22180   Biso      1.000     O          -0.522283           
         O18       1.0000    0.07479   0.28530   0.57250   Biso      1.000     O          -0.368823           
         O19       1.0000    0.05343   0.27830   0.72580   Biso      1.000     O          -0.489402           
         O20       1.0000    0.55343   0.27830   0.77420   Biso      1.000     O          -0.489462           
         O21       1.0000    0.57479   0.28530   0.92750   Biso      1.000     O          -0.368855           
         O22       1.0000    0.55617   0.96740   0.22180   Biso      1.000     O          -0.522281           
         O23       1.0000    0.55250   0.06230   0.08430   Biso      1.000     O          -0.460722           
         O24       1.0000    0.07479   0.71470   0.42750   Biso      1.000     O          -0.368821           
         O25       1.0000    0.94657   0.72170   0.27420   Biso      1.000     O          -0.489417           
         O26       1.0000    0.92521   0.71470   0.42750   Biso      1.000     O          -0.368789           
         O27       1.0000    0.55617   0.03260   0.77820   Biso      1.000     O          -0.522258           
         O28       1.0000    0.55250   0.93770   0.91570   Biso      1.000     O          -0.460718           
         O29       1.0000    0.44750   0.93770   0.91570   Biso      1.000     O          -0.460722           
         O30       1.0000    0.44383   0.03260   0.77820   Biso      1.000     O          -0.522272           
         O31       1.0000    0.42521   0.71470   0.07250   Biso      1.000     O          -0.368884           
         O32       1.0000    0.44657   0.72170   0.22580   Biso      1.000     O          -0.489496           
         O33       1.0000    0.94657   0.27830   0.72580   Biso      1.000     O          -0.489383           
         O34       1.0000    0.92521   0.28530   0.57250   Biso      1.000     O          -0.368786           
         O35       1.0000    0.94750   0.06230   0.41570   Biso      1.000     O          -0.460677           
         O36       1.0000    0.05617   0.96740   0.27820   Biso      1.000     O          -0.522226 