
##########################################################################
#               Crystallographic Information Format file
#               Produced by PyCifRW module
#
#  This is a CIF file.  CIF has been adopted by the International
#  Union of Crystallography as the standard for data archiving and
#  transmission.
#
#  For information on this file format, follow the CIF links at
#  http://www.iucr.org
##########################################################################

data_image0

_cell_length_a                          10.061
_cell_length_b                          11.7219
_cell_length_c                          13.6891
_cell_angle_alpha                       66.934
_cell_angle_beta                        87.182
_cell_angle_gamma                       76.257
_symmetry_space_group_name_H-M          'P 1'
_symmetry_int_tables_number             1
loop_
  _symmetry_equiv_pos_as_xyz
         'x, y, z' 
loop_
  _atom_site_label
  _atom_site_occupancy
  _atom_site_fract_x
  _atom_site_fract_y
  _atom_site_fract_z
  _atom_site_thermal_displace_type
  _atom_site_B_iso_or_equiv
  _atom_site_type_symbol
  _atom_site_charge
         C1        1.0000    0.46380   0.63740   0.31380   Biso      1.000     C          0.6868270000000001  
         C2        1.0000    0.68040   0.03210   0.05420   Biso      1.000     C          0.174696  
         C3        1.0000    0.64610   0.96650   0.15640   Biso      1.000     C          -0.183862           
         C4        1.0000    0.42160   0.85750   0.02450   Biso      1.000     C          0.178362  
         C5        1.0000    0.74220   0.86840   0.22760   Biso      1.000     C          0.030282  
         C6        1.0000    0.87490   0.83680   0.19270   Biso      1.000     C          -0.173868           
         C7        1.0000    0.35390   0.03350   0.84360   Biso      1.000     C          -0.183864           
         C8        1.0000    0.70750   0.79470   0.33760   Biso      1.000     C          0.5979399999999999  
         C9        1.0000    0.89800   0.90550   0.08780   Biso      1.000     C          0.081787  
         C10       1.0000    0.00920   0.49830   0.31910   Biso      1.000     C          0.69435   
         C11       1.0000    0.03620   0.51230   0.03960   Biso      1.000     C          0.172399  
         C12       1.0000    0.98980   0.49390   0.13790   Biso      1.000     C          -0.17607  
         C13       1.0000    0.29250   0.20530   0.66240   Biso      1.000     C          0.597941  
         C14       1.0000    0.06180   0.51630   0.21130   Biso      1.000     C          0.00073   
         C15       1.0000    0.17850   0.56120   0.17700   Biso      1.000     C          -0.154507           
         C16       1.0000    0.31960   0.96790   0.94580   Biso      1.000     C          0.174697  
         C17       1.0000    0.21730   0.57900   0.07470   Biso      1.000     C          0.098982  
         C18       1.0000    0.25780   0.13160   0.77240   Biso      1.000     C          0.030282  
         C19       1.0000    0.12510   0.16320   0.80730   Biso      1.000     C          -0.173868           
         C20       1.0000    0.39140   0.79990   0.13020   Biso      1.000     C          -0.170529           
         C21       1.0000    0.82150   0.43880   0.82300   Biso      1.000     C          -0.154507           
         C22       1.0000    0.93820   0.48370   0.78870   Biso      1.000     C          0.000733  
         C23       1.0000    0.48940   0.70360   0.19950   Biso      1.000     C          0.003064  
         C24       1.0000    0.01020   0.50610   0.86210   Biso      1.000     C          -0.176086           
         C25       1.0000    0.96380   0.48770   0.96040   Biso      1.000     C          0.172414  
         C26       1.0000    0.36380   0.27230   0.94570   Biso      1.000     C          0.086644  
         C27       1.0000    0.99080   0.50170   0.68090   Biso      1.000     C          0.69435   
         C28       1.0000    0.10200   0.09450   0.91220   Biso      1.000     C          0.081787  
         C29       1.0000    0.53620   0.36260   0.68620   Biso      1.000     C          0.6868270000000001  
         C30       1.0000    0.57840   0.14250   0.97550   Biso      1.000     C          0.178362  
         C31       1.0000    0.60860   0.20010   0.86980   Biso      1.000     C          -0.170529           
         C32       1.0000    0.63620   0.72770   0.05430   Biso      1.000     C          0.086644  
         C33       1.0000    0.51060   0.29640   0.80050   Biso      1.000     C          0.003064  
         C34       1.0000    0.38210   0.33480   0.84060   Biso      1.000     C          -0.15953399999999998          
         C35       1.0000    0.61790   0.66520   0.15940   Biso      1.000     C          -0.15953399999999998          
         C36       1.0000    0.78270   0.42100   0.92530   Biso      1.000     C          0.098983  
         Ce1       1.0000    0.76481   0.47152   0.49661   Biso      1.000     Ce          2.158295  
         Ce2       1.0000    0.23519   0.52848   0.50339   Biso      1.000     Ce          2.158295  
         H1        1.0000    0.05610   0.22750   0.76170   Biso      1.000     H          0.12140999999999999           
         H2        1.0000    0.68710   0.59960   0.20360   Biso      1.000     H          0.127005  
         H3        1.0000    0.01660   0.11780   0.93740   Biso      1.000     H          0.081423  
         H4        1.0000    0.09060   0.53380   0.84300   Biso      1.000     H          0.131525  
         H5        1.0000    0.30580   0.82660   0.15350   Biso      1.000     H          0.13610799999999998           
         H6        1.0000    0.77050   0.42080   0.77830   Biso      1.000     H          0.115619  
         H7        1.0000    0.72050   0.70250   0.02840   Biso      1.000     H          0.08732999999999999           
         H8        1.0000    0.44240   0.01140   0.82280   Biso      1.000     H          0.131908  
         H9        1.0000    0.29670   0.60720   0.05330   Biso      1.000     H          0.09135599999999999           
         H10       1.0000    0.27950   0.29750   0.97160   Biso      1.000     H          0.08732999999999999           
         H11       1.0000    0.69420   0.17340   0.84650   Biso      1.000     H          0.13610799999999998           
         H12       1.0000    0.31290   0.40040   0.79640   Biso      1.000     H          0.127005  
         H13       1.0000    0.55760   0.98860   0.17720   Biso      1.000     H          0.131908  
         H14       1.0000    0.94390   0.77250   0.23830   Biso      1.000     H          0.12140999999999999           
         H15       1.0000    0.98340   0.88220   0.06260   Biso      1.000     H          0.081424  
         H16       1.0000    0.90940   0.46620   0.15700   Biso      1.000     H          0.131524  
         H17       1.0000    0.22950   0.57920   0.22170   Biso      1.000     H          0.115619  
         H18       1.0000    0.70330   0.39280   0.94670   Biso      1.000     H          0.09135599999999999           
         N1        1.0000    0.19550   0.99620   0.97980   Biso      1.000     N          -0.302586           
         N2        1.0000    0.84920   0.44220   0.99490   Biso      1.000     N          -0.285813           
         N3        1.0000    0.45810   0.17740   0.01460   Biso      1.000     N          -0.274341           
         N4        1.0000    0.80450   0.00380   0.02020   Biso      1.000     N          -0.302586           
         N5        1.0000    0.15080   0.55780   0.00510   Biso      1.000     N          -0.28581100000000004          
         N6        1.0000    0.54190   0.82260   0.98540   Biso      1.000     N          -0.274341           
         O1        1.0000    0.43520   0.44250   0.62440   Biso      1.000     O          -0.742518           
         O2        1.0000    0.65830   0.34520   0.65770   Biso      1.000     O          -0.682552           
         O3        1.0000    0.79180   0.69070   0.39260   Biso      1.000     O          -0.73111  
         O4        1.0000    0.08060   0.51090   0.38380   Biso      1.000     O          -0.737154           
         O5        1.0000    0.89610   0.47200   0.33690   Biso      1.000     O          -0.645979           
         O6        1.0000    0.40240   0.16300   0.62720   Biso      1.000     O          -0.5676220000000001           
         O7        1.0000    0.20820   0.30930   0.60740   Biso      1.000     O          -0.73111  
         O8        1.0000    0.10390   0.52800   0.66310   Biso      1.000     O          -0.645979           
         O9        1.0000    0.34170   0.65480   0.34230   Biso      1.000     O          -0.682552           
         O10       1.0000    0.56480   0.55750   0.37560   Biso      1.000     O          -0.742518           
         O11       1.0000    0.59760   0.83700   0.37280   Biso      1.000     O          -0.5676220000000001           
         O12       1.0000    0.91940   0.48910   0.61620   Biso      1.000     O          -0.737154 