
##########################################################################
#               Crystallographic Information Format file
#               Produced by PyCifRW module
#
#  This is a CIF file.  CIF has been adopted by the International
#  Union of Crystallography as the standard for data archiving and
#  transmission.
#
#  For information on this file format, follow the CIF links at
#  http://www.iucr.org
##########################################################################

data_image0

_cell_length_a                          10.3287
_cell_length_b                          11.7366
_cell_length_c                          20.3354
_cell_angle_alpha                       90
_cell_angle_beta                        90
_cell_angle_gamma                       90
_symmetry_space_group_name_H-M          'P 1'
_symmetry_int_tables_number             1
loop_
  _symmetry_equiv_pos_as_xyz
         'x, y, z' 
loop_
  _atom_site_label
  _atom_site_occupancy
  _atom_site_fract_x
  _atom_site_fract_y
  _atom_site_fract_z
  _atom_site_thermal_displace_type
  _atom_site_B_iso_or_equiv
  _atom_site_type_symbol
  _atom_site_charge
         C1        1.0000    0.78810   0.44450   0.62110   Biso      1.000     C          0.6234310000000001  
         C2        1.0000    0.27510   0.60190   0.11000   Biso      1.000     C          -0.504131           
         C3        1.0000    0.71190   0.55550   0.12110   Biso      1.000     C          0.623432  
         C4        1.0000    0.22490   0.39810   0.61000   Biso      1.000     C          -0.504131           
         C5        1.0000    0.34370   0.96480   0.77680   Biso      1.000     C          -0.104493           
         C6        1.0000    0.26540   0.60720   0.03480   Biso      1.000     C          0.140251  
         C7        1.0000    0.35680   0.98910   0.71000   Biso      1.000     C          -0.10841500000000001          
         C8        1.0000    0.24990   0.02390   0.67370   Biso      1.000     C          -0.030994           
         C9        1.0000    0.26530   0.05280   0.60189   Biso      1.000     C          0.6189640000000001  
         C10       1.0000    0.14190   0.67120   0.01608   Biso      1.000     C          0.60944   
         C11       1.0000    0.64190   0.82880   0.98392   Biso      1.000     C          0.60944   
         C12       1.0000    0.76540   0.89280   0.96520   Biso      1.000     C          0.140251  
         C13       1.0000    0.65630   0.46480   0.72320   Biso      1.000     C          -0.104493           
         C14       1.0000    0.77510   0.89810   0.89000   Biso      1.000     C          -0.50413  
         C15       1.0000    0.15630   0.03520   0.27680   Biso      1.000     C          -0.104493           
         C16       1.0000    0.35810   0.32880   0.51608   Biso      1.000     C          0.60944   
         C17       1.0000    0.23460   0.39280   0.53480   Biso      1.000     C          0.140251  
         C18       1.0000    0.36920   0.96570   0.20460   Biso      1.000     C          -0.10479200000000001          
         C19       1.0000    0.28810   0.05550   0.37890   Biso      1.000     C          0.6234310000000001  
         C20       1.0000    0.73470   0.55280   0.89811   Biso      1.000     C          0.618965  
         C21       1.0000    0.63080   0.46570   0.29540   Biso      1.000     C          -0.10479200000000001          
         C22       1.0000    0.75010   0.52390   0.82630   Biso      1.000     C          -0.030994999999999998         
         C23       1.0000    0.77500   0.47240   0.69310   Biso      1.000     C          -0.020995           
         C24       1.0000    0.72500   0.52760   0.19310   Biso      1.000     C          -0.020997           
         C25       1.0000    0.21190   0.94450   0.87890   Biso      1.000     C          0.6234310000000001  
         C26       1.0000    0.86920   0.53430   0.79540   Biso      1.000     C          -0.10479200000000001          
         C27       1.0000    0.13080   0.03430   0.70460   Biso      1.000     C          -0.10479200000000001          
         C28       1.0000    0.14320   0.01090   0.21000   Biso      1.000     C          -0.10841500000000001          
         C29       1.0000    0.85810   0.17120   0.48392   Biso      1.000     C          0.60944   
         C30       1.0000    0.73460   0.10720   0.46520   Biso      1.000     C          0.140251  
         C31       1.0000    0.25010   0.97610   0.17370   Biso      1.000     C          -0.030994           
         C32       1.0000    0.72490   0.10190   0.39000   Biso      1.000     C          -0.504131           
         C33       1.0000    0.23470   0.94720   0.10189   Biso      1.000     C          0.6189640000000001  
         C34       1.0000    0.27500   0.02760   0.30690   Biso      1.000     C          -0.020995           
         C35       1.0000    0.38270   0.99250   0.27100   Biso      1.000     C          -0.113219           
         C36       1.0000    0.11730   0.00750   0.77100   Biso      1.000     C          -0.11322  
         C37       1.0000    0.22500   0.97240   0.80690   Biso      1.000     C          -0.020994           
         C38       1.0000    0.76530   0.44720   0.39811   Biso      1.000     C          0.6189640000000001  
         C39       1.0000    0.74990   0.47610   0.32630   Biso      1.000     C          -0.030994           
         C40       1.0000    0.85680   0.51090   0.29000   Biso      1.000     C          -0.10841600000000001          
         C41       1.0000    0.84370   0.53520   0.22320   Biso      1.000     C          -0.10449000000000001          
         C42       1.0000    0.88270   0.50750   0.72900   Biso      1.000     C          -0.113219           
         C43       1.0000    0.61730   0.49250   0.22900   Biso      1.000     C          -0.113219           
         C44       1.0000    0.64320   0.48910   0.79000   Biso      1.000     C          -0.10841500000000001          
         H1        1.0000    0.14640   0.43970   0.62250   Biso      1.000     H          0.159105  
         H2        1.0000    0.22120   0.32060   0.62780   Biso      1.000     H          0.160244  
         H3        1.0000    0.46500   0.98680   0.29170   Biso      1.000     H          0.118119  
         H4        1.0000    0.30100   0.43750   0.62770   Biso      1.000     H          0.165185  
         H5        1.0000    0.35360   0.56030   0.12250   Biso      1.000     H          0.159105  
         H6        1.0000    0.19900   0.56250   0.12770   Biso      1.000     H          0.165185  
         H7        1.0000    0.27880   0.67940   0.12780   Biso      1.000     H          0.160244  
         H8        1.0000    0.06120   0.01830   0.18930   Biso      1.000     H          0.120624  
         H9        1.0000    0.24040   0.47230   0.51740   Biso      1.000     H          0.067901  
         H10       1.0000    0.25960   0.52770   0.01740   Biso      1.000     H          0.067901  
         H11       1.0000    0.85360   0.93970   0.87750   Biso      1.000     H          0.159105  
         H12       1.0000    0.96500   0.51320   0.70830   Biso      1.000     H          0.118119  
         H13       1.0000    0.05780   0.05990   0.68040   Biso      1.000     H          0.121208  
         H14       1.0000    0.03500   0.01320   0.79170   Biso      1.000     H          0.118119  
         H15       1.0000    0.74040   0.02770   0.48260   Biso      1.000     H          0.067901  
         H16       1.0000    0.64640   0.06030   0.37750   Biso      1.000     H          0.159105  
         H17       1.0000    0.80100   0.06250   0.37230   Biso      1.000     H          0.165185  
         H18       1.0000    0.72120   0.17940   0.37220   Biso      1.000     H          0.160244  
         H19       1.0000    0.93880   0.51830   0.31070   Biso      1.000     H          0.120624  
         H20       1.0000    0.91740   0.55710   0.19830   Biso      1.000     H          0.121125  
         H21       1.0000    0.94220   0.55990   0.81960   Biso      1.000     H          0.121209  
         H22       1.0000    0.53500   0.48680   0.20830   Biso      1.000     H          0.118119  
         H23       1.0000    0.41740   0.94290   0.80170   Biso      1.000     H          0.121126  
         H24       1.0000    0.43880   0.98170   0.68930   Biso      1.000     H          0.120624  
         H25       1.0000    0.44220   0.94010   0.18040   Biso      1.000     H          0.121209  
         H26       1.0000    0.75960   0.97230   0.98260   Biso      1.000     H          0.067901  
         H27       1.0000    0.69900   0.93750   0.87230   Biso      1.000     H          0.165185  
         H28       1.0000    0.77880   0.82060   0.87220   Biso      1.000     H          0.160244  
         H29       1.0000    0.56120   0.48170   0.81070   Biso      1.000     H          0.120624  
         H30       1.0000    0.58260   0.44290   0.69830   Biso      1.000     H          0.121126  
         H31       1.0000    0.55780   0.44010   0.31960   Biso      1.000     H          0.121209  
         H32       1.0000    0.08260   0.05710   0.30170   Biso      1.000     H          0.121126  
         O1        1.0000    0.68900   0.40380   0.59416   Biso      1.000     O          -0.555702           
         O2        1.0000    0.46270   0.37690   0.52648   Biso      1.000     O          -0.5153409999999999           
         O3        1.0000    0.12470   0.33930   0.50688   Biso      1.000     O          -0.6311829999999999           
         O4        1.0000    0.37650   0.04220   0.57846   Biso      1.000     O          -0.576397           
         O5        1.0000    0.16490   0.08460   0.57222   Biso      1.000     O          -0.556934           
         O6        1.0000    0.34480   0.22920   0.49282   Biso      1.000     O          -0.58953  
         O7        1.0000    0.18900   0.09620   0.40584   Biso      1.000     O          -0.555702           
         O8        1.0000    0.31100   0.90380   0.90584   Biso      1.000     O          -0.555702           
         O9        1.0000    0.87530   0.83930   0.99312   Biso      1.000     O          -0.6311829999999999           
         O10       1.0000    0.81100   0.59620   0.09416   Biso      1.000     O          -0.555703           
         O11       1.0000    0.87650   0.45780   0.42154   Biso      1.000     O          -0.576397           
         O12       1.0000    0.62470   0.16070   0.49312   Biso      1.000     O          -0.6311829999999999           
         O13       1.0000    0.65520   0.72920   0.00718   Biso      1.000     O          -0.58953  
         O14       1.0000    0.53730   0.87690   0.97352   Biso      1.000     O          -0.5153409999999999           
         O15       1.0000    0.39470   0.03570   0.40529   Biso      1.000     O          -0.5711149999999999           
         O16       1.0000    0.62350   0.54220   0.92154   Biso      1.000     O          -0.576397           
         O17       1.0000    0.83510   0.58460   0.92778   Biso      1.000     O          -0.556934           
         O18       1.0000    0.60530   0.53570   0.09471   Biso      1.000     O          -0.5711149999999999           
         O19       1.0000    0.89470   0.46430   0.59471   Biso      1.000     O          -0.5711149999999999           
         O20       1.0000    0.96270   0.12310   0.47352   Biso      1.000     O          -0.5153409999999999           
         O21       1.0000    0.84480   0.27080   0.50718   Biso      1.000     O          -0.58953  
         O22       1.0000    0.15520   0.77080   0.99282   Biso      1.000     O          -0.58953  
         O23       1.0000    0.03730   0.62310   0.02648   Biso      1.000     O          -0.5153409999999999           
         O24       1.0000    0.37530   0.66070   0.00688   Biso      1.000     O          -0.6311829999999999           
         O25       1.0000    0.12350   0.95780   0.07846   Biso      1.000     O          -0.576397           
         O26       1.0000    0.33510   0.91540   0.07222   Biso      1.000     O          -0.556934           
         O27       1.0000    0.10530   0.96430   0.90529   Biso      1.000     O          -0.5711149999999999           
         O28       1.0000    0.66490   0.41540   0.42778   Biso      1.000     O          -0.556934           
         Zn1       1.0000    0.64691   0.32501   0.51018   Biso      1.000     Zn          0.962356  
         Zn2       1.0000    0.46092   0.07912   0.49319   Biso      1.000     Zn          0.995288  
         Zn3       1.0000    0.85309   0.67499   0.01018   Biso      1.000     Zn          0.962356  
         Zn4       1.0000    0.03908   0.92088   0.99319   Biso      1.000     Zn          0.995287  
         Zn5       1.0000    0.35309   0.82501   0.98982   Biso      1.000     Zn          0.962356  
         Zn6       1.0000    0.14691   0.17499   0.48982   Biso      1.000     Zn          0.962356  
         Zn7       1.0000    0.53908   0.57912   0.00681   Biso      1.000     Zn          0.995288  
         Zn8       1.0000    0.96092   0.42088   0.50681   Biso      1.000     Zn          0.995287 