
##########################################################################
#               Crystallographic Information Format file
#               Produced by PyCifRW module
#
#  This is a CIF file.  CIF has been adopted by the International
#  Union of Crystallography as the standard for data archiving and
#  transmission.
#
#  For information on this file format, follow the CIF links at
#  http://www.iucr.org
##########################################################################

data_image0

_cell_length_a                          10.559
_cell_length_b                          11.371
_cell_length_c                          11.671
_cell_angle_alpha                       104.7
_cell_angle_beta                        106.81
_cell_angle_gamma                       96.127
_symmetry_space_group_name_H-M          'P 1'
_symmetry_int_tables_number             1
loop_
  _symmetry_equiv_pos_as_xyz
         'x, y, z' 
loop_
  _atom_site_label
  _atom_site_occupancy
  _atom_site_fract_x
  _atom_site_fract_y
  _atom_site_fract_z
  _atom_site_thermal_displace_type
  _atom_site_B_iso_or_equiv
  _atom_site_type_symbol
  _atom_site_charge
         C1        1.0000    0.92030   0.14460   0.64940   Biso      1.000     C          0.641039  
         C2        1.0000    0.07390   0.11130   0.83760   Biso      1.000     C          -0.08000399999999999          
         C3        1.0000    0.99480   0.06319   0.71260   Biso      1.000     C          -0.059072           
         C4        1.0000    0.98530   0.93983   0.64943   Biso      1.000     C          -0.133114           
         C5        1.0000    0.05082   0.86267   0.71059   Biso      1.000     C          -0.061583000000000006         
         C6        1.0000    0.03371   0.72883   0.63653   Biso      1.000     C          0.706921  
         C7        1.0000    0.96629   0.27117   0.36347   Biso      1.000     C          0.706921  
         C8        1.0000    0.71997   0.47920   0.81902   Biso      1.000     C          0.6205510000000001  
         C9        1.0000    0.57609   0.42838   0.80237   Biso      1.000     C          -0.06644800000000001          
         C10       1.0000    0.54150   0.35220   0.87010   Biso      1.000     C          0.061091999999999994          
         C11       1.0000    0.40600   0.31880   0.85600   Biso      1.000     C          -0.14368599999999998          
         C12       1.0000    0.30590   0.35740   0.77670   Biso      1.000     C          -0.096986           
         C13       1.0000    0.33976   0.42834   0.70539   Biso      1.000     C          -0.043669           
         C14       1.0000    0.13860   0.03430   0.89840   Biso      1.000     C          -0.135207           
         C15       1.0000    0.47420   0.46251   0.71855   Biso      1.000     C          -0.125344           
         C16       1.0000    0.63940   0.29720   0.94980   Biso      1.000     C          0.09439199999999999           
         C17       1.0000    0.72850   0.23230   0.90560   Biso      1.000     C          -0.12769  
         C18       1.0000    0.80490   0.16740   0.97530   Biso      1.000     C          -0.13608399999999998          
         C19       1.0000    0.79820   0.16881   0.09271   Biso      1.000     C          0.059599  
         C20       1.0000    0.71480   0.23950   0.13990   Biso      1.000     C          -0.140311           
         C21       1.0000    0.63460   0.30080   0.06840   Biso      1.000     C          -0.132319           
         C22       1.0000    0.87250   0.09105   0.16262   Biso      1.000     C          0.077717  
         C23       1.0000    0.86140   0.96570   0.10160   Biso      1.000     C          -0.135209           
         C24       1.0000    0.92610   0.88870   0.16240   Biso      1.000     C          -0.080002           
         C25       1.0000    0.00520   0.93681   0.28740   Biso      1.000     C          -0.059072           
         C26       1.0000    0.01470   0.06017   0.35057   Biso      1.000     C          -0.133114           
         C27       1.0000    0.94918   0.13733   0.28941   Biso      1.000     C          -0.061584           
         C28       1.0000    0.23183   0.46943   0.61871   Biso      1.000     C          0.6850189999999999  
         C29       1.0000    0.12750   0.90895   0.83738   Biso      1.000     C          0.077716  
         C30       1.0000    0.07970   0.85540   0.35060   Biso      1.000     C          0.641039  
         C31       1.0000    0.36540   0.69920   0.93160   Biso      1.000     C          -0.132321           
         C32       1.0000    0.52580   0.53749   0.28145   Biso      1.000     C          -0.125349           
         C33       1.0000    0.28520   0.76050   0.86010   Biso      1.000     C          -0.140309           
         C34       1.0000    0.76817   0.53057   0.38129   Biso      1.000     C          0.685018  
         C35       1.0000    0.20180   0.83119   0.90729   Biso      1.000     C          0.059597000000000004          
         C36       1.0000    0.69410   0.64260   0.22330   Biso      1.000     C          -0.096992           
         C37       1.0000    0.59400   0.68120   0.14400   Biso      1.000     C          -0.143682           
         C38       1.0000    0.19510   0.83260   0.02470   Biso      1.000     C          -0.13608499999999998          
         C39       1.0000    0.45850   0.64780   0.12990   Biso      1.000     C          0.061092999999999995          
         C40       1.0000    0.42391   0.57162   0.19763   Biso      1.000     C          -0.066447           
         C41       1.0000    0.27150   0.76770   0.09440   Biso      1.000     C          -0.12768800000000002          
         C42       1.0000    0.36060   0.70280   0.05020   Biso      1.000     C          0.09439199999999999           
         C43       1.0000    0.28003   0.52080   0.18098   Biso      1.000     C          0.6205510000000001  
         C44       1.0000    0.66024   0.57166   0.29461   Biso      1.000     C          -0.043663           
         Dy1       1.0000    0.10058   0.56096   0.37931   Biso      1.000     Dy          2.121675  
         Dy2       1.0000    0.89942   0.43904   0.62069   Biso      1.000     Dy          2.121675  
         H1        1.0000    0.73660   0.23240   0.82840   Biso      1.000     H          0.10818599999999999           
         H2        1.0000    0.71300   0.24560   0.22040   Biso      1.000     H          0.11231   
         H3        1.0000    0.57670   0.34500   0.10010   Biso      1.000     H          0.11316099999999998           
         H4        1.0000    0.80870   0.93330   0.01760   Biso      1.000     H          0.126905  
         H5        1.0000    0.49700   0.50940   0.67020   Biso      1.000     H          0.136496  
         H6        1.0000    0.61790   0.73110   0.09870   Biso      1.000     H          0.11274200000000001           
         H7        1.0000    0.78710   0.13530   0.50660   Biso      1.000     H          0.405402  
         H8        1.0000    0.91680   0.80550   0.12000   Biso      1.000     H          0.1356    
         H9        1.0000    0.21640   0.33600   0.77120   Biso      1.000     H          0.11177899999999999           
         H10       1.0000    0.06570   0.09150   0.43520   Biso      1.000     H          0.12603   
         H11       1.0000    0.86180   0.12220   0.94310   Biso      1.000     H          0.10384600000000001           
         H12       1.0000    0.42330   0.65500   0.89990   Biso      1.000     H          0.11316199999999998           
         H13       1.0000    0.50300   0.49060   0.32980   Biso      1.000     H          0.136497  
         H14       1.0000    0.28700   0.75440   0.77960   Biso      1.000     H          0.11231   
         H15       1.0000    0.19130   0.06670   0.98240   Biso      1.000     H          0.126905  
         H16       1.0000    0.08320   0.19450   0.88000   Biso      1.000     H          0.1356    
         H17       1.0000    0.13820   0.87780   0.05690   Biso      1.000     H          0.10384600000000001           
         H18       1.0000    0.93430   0.90850   0.56480   Biso      1.000     H          0.12603   
         H19       1.0000    0.78360   0.66400   0.22880   Biso      1.000     H          0.11177999999999999           
         H20       1.0000    0.26340   0.76760   0.17160   Biso      1.000     H          0.10818599999999999           
         H21       1.0000    0.38210   0.26890   0.90130   Biso      1.000     H          0.11274200000000001           
         H22       1.0000    0.21290   0.86470   0.49340   Biso      1.000     H          0.405402  
         O1        1.0000    0.25566   0.51720   0.28020   Biso      1.000     O          -0.761465           
         O2        1.0000    0.26133   0.51244   0.53852   Biso      1.000     O          -0.658187           
         O3        1.0000    0.19622   0.48260   0.07423   Biso      1.000     O          -0.559824           
         O4        1.0000    0.94681   0.25718   0.69171   Biso      1.000     O          -0.609867           
         O5        1.0000    0.11805   0.45857   0.63033   Biso      1.000     O          -0.736371           
         O6        1.0000    0.03868   0.34936   0.34031   Biso      1.000     O          -0.653838           
         O7        1.0000    0.90711   0.29072   0.44310   Biso      1.000     O          -0.721936           
         O8        1.0000    0.80378   0.51740   0.92577   Biso      1.000     O          -0.559824           
         O9        1.0000    0.09289   0.70928   0.55690   Biso      1.000     O          -0.721936           
         O10       1.0000    0.17750   0.91600   0.45430   Biso      1.000     O          -0.47745600000000005          
         O11       1.0000    0.96132   0.65064   0.65969   Biso      1.000     O          -0.653838           
         O12       1.0000    0.88195   0.54143   0.36967   Biso      1.000     O          -0.736371           
         O13       1.0000    0.73867   0.48756   0.46148   Biso      1.000     O          -0.658187           
         O14       1.0000    0.74434   0.48280   0.71980   Biso      1.000     O          -0.761465           
         O15       1.0000    0.05319   0.74282   0.30829   Biso      1.000     O          -0.609867           
         O16       1.0000    0.82250   0.08400   0.54570   Biso      1.000     O          -0.47745600000000005 