
##########################################################################
#               Crystallographic Information Format file
#               Produced by PyCifRW module
#
#  This is a CIF file.  CIF has been adopted by the International
#  Union of Crystallography as the standard for data archiving and
#  transmission.
#
#  For information on this file format, follow the CIF links at
#  http://www.iucr.org
##########################################################################

data_image0

_cell_length_a                          20.124
_cell_length_b                          7.0312
_cell_length_c                          17.2274
_cell_angle_alpha                       90
_cell_angle_beta                        90
_cell_angle_gamma                       90
_symmetry_space_group_name_H-M          'P 1'
_symmetry_int_tables_number             1
loop_
  _symmetry_equiv_pos_as_xyz
         'x, y, z' 
loop_
  _atom_site_label
  _atom_site_occupancy
  _atom_site_fract_x
  _atom_site_fract_y
  _atom_site_fract_z
  _atom_site_thermal_displace_type
  _atom_site_B_iso_or_equiv
  _atom_site_type_symbol
  _atom_site_charge
         C1        1.0000    0.69121   0.47690   0.62627   Biso      1.000     C          0.053478  
         C2        1.0000    0.34796   0.91510   0.93535   Biso      1.000     C          -0.150087           
         C3        1.0000    0.30879   0.97690   0.87373   Biso      1.000     C          0.053499  
         C4        1.0000    0.34023   0.99760   0.80228   Biso      1.000     C          -0.152524           
         C5        1.0000    0.40589   0.95430   0.79220   Biso      1.000     C          0.001209  
         C6        1.0000    0.79136   0.94510   0.04687   Biso      1.000     C          -0.188002           
         C7        1.0000    0.44345   0.88870   0.85367   Biso      1.000     C          -0.135634           
         C8        1.0000    0.41301   0.87300   0.92602   Biso      1.000     C          -0.015839           
         C9        1.0000    0.43531   0.96450   0.71189   Biso      1.000     C          0.579508  
         C10       1.0000    0.45157   0.79310   0.99152   Biso      1.000     C          0.556351  
         C11       1.0000    0.54843   0.29310   0.50848   Biso      1.000     C          0.556316  
         C12       1.0000    0.56469   0.46450   0.78811   Biso      1.000     C          0.579518  
         C13       1.0000    0.58699   0.37300   0.57398   Biso      1.000     C          -0.015838           
         C14       1.0000    0.85753   0.90760   0.04147   Biso      1.000     C          0.10084   
         C15       1.0000    0.55655   0.38870   0.64633   Biso      1.000     C          -0.135626           
         C16       1.0000    0.64247   0.90760   0.54147   Biso      1.000     C          0.100862  
         C17       1.0000    0.59411   0.45430   0.70780   Biso      1.000     C          0.001231  
         C18       1.0000    0.62903   0.96040   0.67227   Biso      1.000     C          0.110491  
         C19       1.0000    0.65977   0.49760   0.69772   Biso      1.000     C          -0.152541           
         C20       1.0000    0.69454   0.99540   0.68043   Biso      1.000     C          -0.177613           
         C21       1.0000    0.73753   0.98900   0.61771   Biso      1.000     C          0.122023  
         C22       1.0000    0.84796   0.08490   0.56465   Biso      1.000     C          -0.150093           
         C23       1.0000    0.80879   0.02310   0.62627   Biso      1.000     C          0.053496  
         C24       1.0000    0.84023   0.00240   0.69772   Biso      1.000     C          -0.152542           
         C25       1.0000    0.90589   0.04570   0.70780   Biso      1.000     C          0.001255  
         C26       1.0000    0.65204   0.41510   0.56465   Biso      1.000     C          -0.150078           
         C27       1.0000    0.94345   0.11130   0.64633   Biso      1.000     C          -0.135634           
         C28       1.0000    0.70864   0.94510   0.54687   Biso      1.000     C          -0.187982           
         C29       1.0000    0.91301   0.12700   0.57398   Biso      1.000     C          -0.015843           
         C30       1.0000    0.23753   0.01100   0.88229   Biso      1.000     C          0.122018  
         C31       1.0000    0.12903   0.03960   0.82773   Biso      1.000     C          0.110471  
         C32       1.0000    0.56469   0.03550   0.28811   Biso      1.000     C          0.579501  
         C33       1.0000    0.29136   0.05490   0.45313   Biso      1.000     C          -0.188003           
         C34       1.0000    0.58699   0.12700   0.07398   Biso      1.000     C          -0.01588  
         C35       1.0000    0.35753   0.09240   0.45853   Biso      1.000     C          0.100838  
         C36       1.0000    0.55655   0.11130   0.14633   Biso      1.000     C          -0.135623           
         C37       1.0000    0.37097   0.03960   0.32773   Biso      1.000     C          0.110482  
         C38       1.0000    0.30546   0.00460   0.31957   Biso      1.000     C          -0.177623           
         C39       1.0000    0.26247   0.01100   0.38229   Biso      1.000     C          0.12201   
         C40       1.0000    0.59411   0.04570   0.20780   Biso      1.000     C          0.001231  
         C41       1.0000    0.15204   0.91510   0.43535   Biso      1.000     C          -0.150086           
         C42       1.0000    0.19121   0.97690   0.37373   Biso      1.000     C          0.053505  
         C43       1.0000    0.65977   0.00240   0.19772   Biso      1.000     C          -0.152529           
         C44       1.0000    0.19454   0.00460   0.81957   Biso      1.000     C          -0.177611           
         C45       1.0000    0.15977   0.99760   0.30228   Biso      1.000     C          -0.152529           
         C46       1.0000    0.05655   0.88870   0.35367   Biso      1.000     C          -0.135622           
         C47       1.0000    0.08699   0.87300   0.42602   Biso      1.000     C          -0.015883           
         C48       1.0000    0.06469   0.96450   0.21189   Biso      1.000     C          0.57949   
         C49       1.0000    0.04843   0.79310   0.49152   Biso      1.000     C          0.556356  
         C50       1.0000    0.69121   0.02310   0.12627   Biso      1.000     C          0.053491  
         C51       1.0000    0.65204   0.08490   0.06465   Biso      1.000     C          -0.150078           
         C52       1.0000    0.76247   0.98900   0.11771   Biso      1.000     C          0.122031  
         C53       1.0000    0.80546   0.99540   0.18043   Biso      1.000     C          -0.177629           
         C54       1.0000    0.29136   0.44510   0.95313   Biso      1.000     C          -0.188002           
         C55       1.0000    0.20864   0.05490   0.95313   Biso      1.000     C          -0.187998           
         C56       1.0000    0.14247   0.09240   0.95853   Biso      1.000     C          0.100869  
         C57       1.0000    0.87097   0.96040   0.17227   Biso      1.000     C          0.110491  
         C58       1.0000    0.09411   0.95430   0.29220   Biso      1.000     C          0.00124   
         C59       1.0000    0.93531   0.03550   0.78811   Biso      1.000     C          0.579506  
         C60       1.0000    0.54843   0.20690   0.00848   Biso      1.000     C          0.556373  
         C61       1.0000    0.05655   0.61130   0.85367   Biso      1.000     C          -0.135633           
         C62       1.0000    0.34796   0.58490   0.43535   Biso      1.000     C          -0.15009  
         C63       1.0000    0.84023   0.49760   0.19772   Biso      1.000     C          -0.152535           
         C64       1.0000    0.90589   0.45430   0.20780   Biso      1.000     C          0.001222  
         C65       1.0000    0.04843   0.70690   0.99152   Biso      1.000     C          0.556351  
         C66       1.0000    0.94345   0.38870   0.14633   Biso      1.000     C          -0.135627           
         C67       1.0000    0.91301   0.37300   0.07398   Biso      1.000     C          -0.015867           
         C68       1.0000    0.93531   0.46450   0.28811   Biso      1.000     C          0.579515  
         C69       1.0000    0.23753   0.48900   0.38229   Biso      1.000     C          0.122034  
         C70       1.0000    0.30879   0.52310   0.37373   Biso      1.000     C          0.05349   
         C71       1.0000    0.95157   0.29310   0.00848   Biso      1.000     C          0.556367  
         C72       1.0000    0.08699   0.62700   0.92602   Biso      1.000     C          -0.015862           
         C73       1.0000    0.95157   0.20690   0.50848   Biso      1.000     C          0.556336  
         C74       1.0000    0.19454   0.49540   0.31957   Biso      1.000     C          -0.177629           
         C75       1.0000    0.15204   0.58490   0.93535   Biso      1.000     C          -0.15006  
         C76       1.0000    0.09411   0.54570   0.79220   Biso      1.000     C          0.00119   
         C77       1.0000    0.12903   0.46040   0.32773   Biso      1.000     C          0.110511  
         C78       1.0000    0.15977   0.50240   0.80228   Biso      1.000     C          -0.152507           
         C79       1.0000    0.19121   0.52310   0.87373   Biso      1.000     C          0.053494  
         C80       1.0000    0.06469   0.53550   0.71189   Biso      1.000     C          0.579501  
         C81       1.0000    0.26247   0.48900   0.88229   Biso      1.000     C          0.122018  
         C82       1.0000    0.80879   0.47690   0.12627   Biso      1.000     C          0.053498  
         C83       1.0000    0.84796   0.41510   0.06465   Biso      1.000     C          -0.150072           
         C84       1.0000    0.76247   0.51100   0.61771   Biso      1.000     C          0.122043  
         C85       1.0000    0.80546   0.50460   0.68043   Biso      1.000     C          -0.177621           
         C86       1.0000    0.35753   0.40760   0.95853   Biso      1.000     C          0.10087   
         C87       1.0000    0.87097   0.53960   0.67227   Biso      1.000     C          0.110522  
         C88       1.0000    0.37097   0.46040   0.82773   Biso      1.000     C          0.11048   
         C89       1.0000    0.45157   0.70690   0.49152   Biso      1.000     C          0.556344  
         C90       1.0000    0.43531   0.53550   0.21189   Biso      1.000     C          0.579496  
         C91       1.0000    0.41301   0.62700   0.42602   Biso      1.000     C          -0.015856           
         C92       1.0000    0.70864   0.55490   0.04687   Biso      1.000     C          -0.188004           
         C93       1.0000    0.85753   0.59240   0.54147   Biso      1.000     C          0.100857  
         C94       1.0000    0.64247   0.59240   0.04147   Biso      1.000     C          0.10084   
         C95       1.0000    0.44345   0.61130   0.35367   Biso      1.000     C          -0.135602           
         C96       1.0000    0.62903   0.53960   0.17227   Biso      1.000     C          0.110488  
         C97       1.0000    0.79136   0.55490   0.54687   Biso      1.000     C          -0.187975           
         C98       1.0000    0.30546   0.49540   0.81957   Biso      1.000     C          -0.177615           
         C99       1.0000    0.69454   0.50460   0.18043   Biso      1.000     C          -0.177614           
         C100      1.0000    0.73753   0.51100   0.11771   Biso      1.000     C          0.122022  
         C101      1.0000    0.40589   0.54570   0.29220   Biso      1.000     C          0.001226  
         C102      1.0000    0.34023   0.50240   0.30228   Biso      1.000     C          -0.152525           
         C103      1.0000    0.20864   0.44510   0.45313   Biso      1.000     C          -0.187986           
         C104      1.0000    0.14247   0.40760   0.45853   Biso      1.000     C          0.100836  
         Cu1       1.0000    0.50856   0.84551   0.59478   Biso      1.000     Cu          0.799584  
         Cu2       1.0000    0.50856   0.65449   0.09478   Biso      1.000     Cu          0.799563  
         Cu3       1.0000    0.00856   0.15449   0.90521   Biso      1.000     Cu          0.799613  
         Cu4       1.0000    0.49144   0.34551   0.90521   Biso      1.000     Cu          0.799626  
         Cu5       1.0000    0.00856   0.34551   0.40522   Biso      1.000     Cu          0.799551  
         Cu6       1.0000    0.99144   0.84551   0.09478   Biso      1.000     Cu          0.799587  
         Cu7       1.0000    0.49144   0.15449   0.40522   Biso      1.000     Cu          0.799574  
         Cu8       1.0000    0.99144   0.65449   0.59478   Biso      1.000     Cu          0.799499  
         H1        1.0000    0.37520   0.37710   0.00680   Biso      1.000     H          0.117325  
         H2        1.0000    0.78870   0.47550   0.72930   Biso      1.000     H          0.134577  
         H3        1.0000    0.39830   0.46920   0.78440   Biso      1.000     H          0.111766  
         H4        1.0000    0.28870   0.52450   0.77070   Biso      1.000     H          0.134567  
         H5        1.0000    0.51210   0.14400   0.15300   Biso      1.000     H          0.141863  
         H6        1.0000    0.89830   0.53080   0.71560   Biso      1.000     H          0.111778  
         H7        1.0000    0.68410   0.54230   0.73980   Biso      1.000     H          0.118362  
         H8        1.0000    0.87520   0.62290   0.49320   Biso      1.000     H          0.117335  
         H9        1.0000    0.18410   0.45770   0.76020   Biso      1.000     H          0.118336  
         H10       1.0000    0.76520   0.55870   0.50240   Biso      1.000     H          0.13382   
         H11       1.0000    0.76520   0.94130   0.00240   Biso      1.000     H          0.133814  
         H12       1.0000    0.68410   0.95770   0.23980   Biso      1.000     H          0.118343  
         H13       1.0000    0.17110   0.59750   0.98420   Biso      1.000     H          0.124377  
         H14       1.0000    0.87520   0.87710   0.99320   Biso      1.000     H          0.117329  
         H15       1.0000    0.01210   0.64400   0.84700   Biso      1.000     H          0.14186   
         H16       1.0000    0.89830   0.96920   0.21560   Biso      1.000     H          0.111773  
         H17       1.0000    0.67110   0.09750   0.01580   Biso      1.000     H          0.124385  
         H18       1.0000    0.78870   0.02450   0.22930   Biso      1.000     H          0.134558  
         H19       1.0000    0.51210   0.35600   0.65300   Biso      1.000     H          0.141876  
         H20       1.0000    0.67110   0.40250   0.51580   Biso      1.000     H          0.124391  
         H21       1.0000    0.23480   0.05870   0.99760   Biso      1.000     H          0.133816  
         H22       1.0000    0.81590   0.95770   0.73980   Biso      1.000     H          0.118347  
         H23       1.0000    0.60170   0.96920   0.71560   Biso      1.000     H          0.111789  
         H24       1.0000    0.71130   0.02450   0.72930   Biso      1.000     H          0.134592  
         H25       1.0000    0.82890   0.09750   0.51580   Biso      1.000     H          0.12438   
         H26       1.0000    0.98790   0.14400   0.65300   Biso      1.000     H          0.141876  
         H27       1.0000    0.73480   0.55870   0.00240   Biso      1.000     H          0.133819  
         H28       1.0000    0.62480   0.62290   0.99320   Biso      1.000     H          0.117324  
         H29       1.0000    0.60170   0.53080   0.21560   Biso      1.000     H          0.111761  
         H30       1.0000    0.71130   0.47550   0.22930   Biso      1.000     H          0.134563  
         H31       1.0000    0.62480   0.87710   0.49320   Biso      1.000     H          0.117334  
         H32       1.0000    0.82890   0.40250   0.01580   Biso      1.000     H          0.124374  
         H33       1.0000    0.98790   0.35600   0.15300   Biso      1.000     H          0.141864  
         H34       1.0000    0.23480   0.44130   0.49760   Biso      1.000     H          0.133819  
         H35       1.0000    0.12480   0.37710   0.50680   Biso      1.000     H          0.117342  
         H36       1.0000    0.10170   0.46920   0.28440   Biso      1.000     H          0.111785  
         H37       1.0000    0.21130   0.52450   0.27070   Biso      1.000     H          0.134584  
         H38       1.0000    0.32890   0.59750   0.48420   Biso      1.000     H          0.124392  
         H39       1.0000    0.31590   0.45770   0.26020   Biso      1.000     H          0.118359  
         H40       1.0000    0.48790   0.64400   0.34700   Biso      1.000     H          0.141869  
         H41       1.0000    0.81590   0.54230   0.23980   Biso      1.000     H          0.118338  
         H42       1.0000    0.73480   0.94130   0.50240   Biso      1.000     H          0.133831  
         H43       1.0000    0.26520   0.44130   0.99760   Biso      1.000     H          0.133825  
         H44       1.0000    0.01210   0.85600   0.34700   Biso      1.000     H          0.141871  
         H45       1.0000    0.18410   0.04230   0.26020   Biso      1.000     H          0.118348  
         H46       1.0000    0.12480   0.12290   0.00680   Biso      1.000     H          0.117328  
         H47       1.0000    0.10170   0.03080   0.78440   Biso      1.000     H          0.111773  
         H48       1.0000    0.21130   0.97550   0.77070   Biso      1.000     H          0.134557  
         H49       1.0000    0.32890   0.90250   0.98420   Biso      1.000     H          0.124384  
         H50       1.0000    0.31590   0.04230   0.76020   Biso      1.000     H          0.118346  
         H51       1.0000    0.48790   0.85600   0.84700   Biso      1.000     H          0.14186   
         H52       1.0000    0.17110   0.90250   0.48420   Biso      1.000     H          0.124377  
         H53       1.0000    0.28870   0.97550   0.27070   Biso      1.000     H          0.134589  
         H54       1.0000    0.39830   0.03080   0.28440   Biso      1.000     H          0.111784  
         H55       1.0000    0.37520   0.12290   0.50680   Biso      1.000     H          0.117335  
         H56       1.0000    0.26520   0.05870   0.49760   Biso      1.000     H          0.133829  
         N1        1.0000    0.39824   0.41290   0.89683   Biso      1.000     N          -0.256043           
         N2        1.0000    0.89824   0.91290   0.10317   Biso      1.000     N          -0.256007           
         N3        1.0000    0.10176   0.41290   0.39683   Biso      1.000     N          -0.255968           
         N4        1.0000    0.60176   0.58710   0.10317   Biso      1.000     N          -0.256001           
         N5        1.0000    0.39824   0.08710   0.39683   Biso      1.000     N          -0.255963           
         N6        1.0000    0.10176   0.08710   0.89683   Biso      1.000     N          -0.256036           
         N7        1.0000    0.89824   0.58710   0.60317   Biso      1.000     N          -0.255968           
         N8        1.0000    0.60176   0.91290   0.60317   Biso      1.000     N          -0.255974           
         O1        1.0000    0.98812   0.13010   0.79861   Biso      1.000     O          -0.54243  
         O2        1.0000    0.92778   0.29550   0.94124   Biso      1.000     O          -0.499409           
         O3        1.0000    0.59236   0.55730   0.83898   Biso      1.000     O          -0.558749           
         O4        1.0000    0.51188   0.36990   0.79861   Biso      1.000     O          -0.542426           
         O5        1.0000    0.49293   0.22010   0.51719   Biso      1.000     O          -0.529375           
         O6        1.0000    0.57222   0.20450   0.94124   Biso      1.000     O          -0.499408           
         O7        1.0000    0.57222   0.29550   0.44124   Biso      1.000     O          -0.499375           
         O8        1.0000    0.59236   0.94270   0.33898   Biso      1.000     O          -0.558781           
         O9        1.0000    0.40764   0.05730   0.66102   Biso      1.000     O          -0.558746           
         O10       1.0000    0.40764   0.44270   0.16102   Biso      1.000     O          -0.558743           
         O11       1.0000    0.48812   0.63010   0.20139   Biso      1.000     O          -0.542388           
         O12       1.0000    0.50707   0.77990   0.48281   Biso      1.000     O          -0.529329           
         O13       1.0000    0.42778   0.70450   0.55876   Biso      1.000     O          -0.499373           
         O14       1.0000    0.00707   0.22010   0.01719   Biso      1.000     O          -0.529388           
         O15       1.0000    0.98812   0.36990   0.29861   Biso      1.000     O          -0.542432           
         O16       1.0000    0.90764   0.55730   0.33898   Biso      1.000     O          -0.558772           
         O17       1.0000    0.48812   0.86990   0.70139   Biso      1.000     O          -0.542433           
         O18       1.0000    0.50707   0.72010   0.98281   Biso      1.000     O          -0.529326           
         O19       1.0000    0.42778   0.79550   0.05876   Biso      1.000     O          -0.499399           
         O20       1.0000    0.09236   0.44270   0.66102   Biso      1.000     O          -0.558747           
         O21       1.0000    0.01188   0.63010   0.70139   Biso      1.000     O          -0.542387           
         O22       1.0000    0.99293   0.77990   0.98281   Biso      1.000     O          -0.529328           
         O23       1.0000    0.07222   0.70450   0.05876   Biso      1.000     O          -0.49941  
         O24       1.0000    0.49293   0.27990   0.01719   Biso      1.000     O          -0.529387           
         O25       1.0000    0.07222   0.79550   0.55876   Biso      1.000     O          -0.499363           
         O26       1.0000    0.09236   0.05730   0.16102   Biso      1.000     O          -0.558749           
         O27       1.0000    0.01188   0.86990   0.20139   Biso      1.000     O          -0.542406           
         O28       1.0000    0.99293   0.72010   0.48281   Biso      1.000     O          -0.529318           
         O29       1.0000    0.92778   0.20450   0.44124   Biso      1.000     O          -0.499367           
         O30       1.0000    0.00707   0.27990   0.51719   Biso      1.000     O          -0.529358           
         O31       1.0000    0.90764   0.94270   0.83898   Biso      1.000     O          -0.55876  
         O32       1.0000    0.51188   0.13010   0.29861   Biso      1.000     O          -0.542449 