
##########################################################################
#               Crystallographic Information Format file
#               Produced by PyCifRW module
#
#  This is a CIF file.  CIF has been adopted by the International
#  Union of Crystallography as the standard for data archiving and
#  transmission.
#
#  For information on this file format, follow the CIF links at
#  http://www.iucr.org
##########################################################################

data_image0

_cell_length_a                          10.883
_cell_length_b                          10.9258
_cell_length_c                          14.0658
_cell_angle_alpha                       92.417
_cell_angle_beta                        90.099
_cell_angle_gamma                       101.723
_symmetry_space_group_name_H-M          'P 1'
_symmetry_int_tables_number             1
loop_
  _symmetry_equiv_pos_as_xyz
         'x, y, z' 
loop_
  _atom_site_label
  _atom_site_occupancy
  _atom_site_fract_x
  _atom_site_fract_y
  _atom_site_fract_z
  _atom_site_thermal_displace_type
  _atom_site_B_iso_or_equiv
  _atom_site_type_symbol
  _atom_site_charge
         C1        1.0000    0.84770   0.67020   0.81880   Biso      1.000     C          -0.176831           
         C2        1.0000    0.26340   0.33720   0.33880   Biso      1.000     C          0.12066099999999999           
         C3        1.0000    0.37030   0.35120   0.39060   Biso      1.000     C          -0.17206300000000002          
         C4        1.0000    0.36710   0.34930   0.48900   Biso      1.000     C          0.10069199999999999           
         C5        1.0000    0.26290   0.33760   0.23440   Biso      1.000     C          0.10391900000000001           
         C6        1.0000    0.15230   0.32980   0.18120   Biso      1.000     C          -0.176833           
         C7        1.0000    0.37400   0.34690   0.18250   Biso      1.000     C          -0.173443           
         C8        1.0000    0.15740   0.33050   0.08390   Biso      1.000     C          0.104926  
         C9        1.0000    0.11050   0.66690   0.21280   Biso      1.000     C          -0.021315           
         C10       1.0000    0.62970   0.64880   0.60940   Biso      1.000     C          -0.172074           
         C11       1.0000    0.73710   0.66240   0.76560   Biso      1.000     C          0.10391800000000001           
         C12       1.0000    0.73660   0.66280   0.66120   Biso      1.000     C          0.12066900000000001           
         C13       1.0000    0.84310   0.67540   0.60980   Biso      1.000     C          -0.178361           
         C14       1.0000    0.83930   0.67410   0.51180   Biso      1.000     C          0.10248099999999999           
         C15       1.0000    0.63010   0.65340   0.91520   Biso      1.000     C          0.116576  
         C16       1.0000    0.15690   0.32460   0.39020   Biso      1.000     C          -0.178361           
         C17       1.0000    0.84260   0.66950   0.91610   Biso      1.000     C          0.104926  
         C18       1.0000    0.50030   0.65050   0.21240   Biso      1.000     C          0.5951649999999999  
         C19       1.0000    0.36370   0.65710   0.21210   Biso      1.000     C          -0.031466           
         C20       1.0000    0.29740   0.65080   0.12750   Biso      1.000     C          -0.108055           
         C21       1.0000    0.17090   0.65540   0.12800   Biso      1.000     C          -0.11360799999999999          
         C22       1.0000    0.30150   0.66870   0.29820   Biso      1.000     C          -0.11749100000000001          
         C23       1.0000    0.72070   0.42260   0.21240   Biso      1.000     C          0.594522  
         C24       1.0000    0.73340   0.28840   0.21400   Biso      1.000     C          -0.030804           
         C25       1.0000    0.74440   0.23470   0.29920   Biso      1.000     C          -0.126408           
         C26       1.0000    0.73820   0.21850   0.13170   Biso      1.000     C          -0.11424100000000001          
         C27       1.0000    0.75760   0.90150   0.22180   Biso      1.000     C          0.596725  
         C28       1.0000    0.75490   0.03880   0.21800   Biso      1.000     C          -0.012718           
         C29       1.0000    0.74790   0.09370   0.13330   Biso      1.000     C          -0.10340899999999999          
         C30       1.0000    0.75510   0.10880   0.30210   Biso      1.000     C          -0.12126500000000001          
         C31       1.0000    0.97210   0.67170   0.21280   Biso      1.000     C          0.598356  
         C32       1.0000    0.62600   0.65310   0.81750   Biso      1.000     C          -0.173438           
         C33       1.0000    0.16070   0.32590   0.48820   Biso      1.000     C          0.10248   
         C34       1.0000    0.36990   0.34660   0.08480   Biso      1.000     C          0.11658099999999999           
         C35       1.0000    0.88950   0.33310   0.78720   Biso      1.000     C          -0.021315           
         C36       1.0000    0.63290   0.65070   0.51100   Biso      1.000     C          0.10069299999999999           
         C37       1.0000    0.82430   0.32680   0.70130   Biso      1.000     C          -0.119901           
         C38       1.0000    0.49970   0.34950   0.78760   Biso      1.000     C          0.5951649999999999  
         C39       1.0000    0.63630   0.34290   0.78790   Biso      1.000     C          -0.031466           
         C40       1.0000    0.70260   0.34920   0.87250   Biso      1.000     C          -0.108055           
         C41       1.0000    0.82910   0.34460   0.87200   Biso      1.000     C          -0.11360799999999999          
         C42       1.0000    0.69850   0.33130   0.70180   Biso      1.000     C          -0.117487           
         C43       1.0000    0.27930   0.57740   0.78760   Biso      1.000     C          0.5945199999999999  
         C44       1.0000    0.17570   0.67320   0.29870   Biso      1.000     C          -0.119898           
         C45       1.0000    0.02790   0.32830   0.78720   Biso      1.000     C          0.598356  
         C46       1.0000    0.25560   0.76530   0.70080   Biso      1.000     C          -0.126413           
         C47       1.0000    0.26180   0.78150   0.86830   Biso      1.000     C          -0.114249           
         C48       1.0000    0.24240   0.09850   0.77820   Biso      1.000     C          0.596726  
         C49       1.0000    0.24510   0.96120   0.78200   Biso      1.000     C          -0.012718           
         C50       1.0000    0.25210   0.90630   0.86670   Biso      1.000     C          -0.10340799999999999          
         C51       1.0000    0.26660   0.71160   0.78600   Biso      1.000     C          -0.030791000000000002         
         C52       1.0000    0.24490   0.89120   0.69790   Biso      1.000     C          -0.12126400000000001          
         H1        1.0000    0.92090   0.68520   0.64140   Biso      1.000     H          0.124919  
         H2        1.0000    0.55450   0.64880   0.94840   Biso      1.000     H          0.105172  
         H3        1.0000    0.07500   0.32420   0.21220   Biso      1.000     H          0.131012  
         H4        1.0000    0.44340   0.35850   0.52260   Biso      1.000     H          0.094658  
         H5        1.0000    0.44790   0.36230   0.35950   Biso      1.000     H          0.129003  
         H6        1.0000    0.07910   0.31480   0.35860   Biso      1.000     H          0.124919  
         H7        1.0000    0.08490   0.31950   0.52130   Biso      1.000     H          0.097015  
         H8        1.0000    0.25030   0.95300   0.92420   Biso      1.000     H          0.121218  
         H9        1.0000    0.23780   0.92740   0.63930   Biso      1.000     H          0.119298  
         H10       1.0000    0.91810   0.67610   0.95040   Biso      1.000     H          0.10380199999999999           
         H11       1.0000    0.26520   0.74440   0.92710   Biso      1.000     H          0.11311199999999999           
         H12       1.0000    0.25520   0.71740   0.64370   Biso      1.000     H          0.11123699999999999           
         H13       1.0000    0.65400   0.32650   0.64390   Biso      1.000     H          0.112955  
         H14       1.0000    0.87370   0.34920   0.92980   Biso      1.000     H          0.11616900000000001           
         H15       1.0000    0.66180   0.35680   0.93060   Biso      1.000     H          0.11560799999999999           
         H16       1.0000    0.86570   0.31950   0.64330   Biso      1.000     H          0.115168  
         H17       1.0000    0.54880   0.64670   0.78560   Biso      1.000     H          0.130551  
         H18       1.0000    0.73480   0.25560   0.07290   Biso      1.000     H          0.11311199999999999           
         H19       1.0000    0.55660   0.64150   0.47740   Biso      1.000     H          0.094658  
         H20       1.0000    0.44550   0.35120   0.05160   Biso      1.000     H          0.105172  
         H21       1.0000    0.08190   0.32390   0.04960   Biso      1.000     H          0.10380299999999999           
         H22       1.0000    0.45120   0.35330   0.21440   Biso      1.000     H          0.130551  
         H23       1.0000    0.33820   0.64320   0.06940   Biso      1.000     H          0.11560899999999999           
         H24       1.0000    0.92500   0.67580   0.78780   Biso      1.000     H          0.131012  
         H25       1.0000    0.34600   0.67350   0.35610   Biso      1.000     H          0.112956  
         H26       1.0000    0.12630   0.65080   0.07020   Biso      1.000     H          0.11617000000000001           
         H27       1.0000    0.74970   0.04700   0.07580   Biso      1.000     H          0.12121900000000001           
         H28       1.0000    0.76220   0.07260   0.36070   Biso      1.000     H          0.119298  
         H29       1.0000    0.13430   0.68050   0.35670   Biso      1.000     H          0.115168  
         H30       1.0000    0.91510   0.68050   0.47870   Biso      1.000     H          0.097014  
         H31       1.0000    0.55210   0.63770   0.64050   Biso      1.000     H          0.129004  
         H32       1.0000    0.74480   0.28260   0.35630   Biso      1.000     H          0.11123599999999999           
         N1        1.0000    0.73620   0.66470   0.46300   Biso      1.000     N          -0.17889000000000002          
         N2        1.0000    0.73490   0.65980   0.96520   Biso      1.000     N          -0.195472           
         N3        1.0000    0.26510   0.34020   0.03480   Biso      1.000     N          -0.195472           
         N4        1.0000    0.26380   0.33530   0.53700   Biso      1.000     N          -0.17889000000000002          
         O1        1.0000    0.07870   0.32380   0.70740   Biso      1.000     O          -0.56043  
         O2        1.0000    0.55320   0.65500   0.29210   Biso      1.000     O          -0.56007  
         O3        1.0000    0.71610   0.46830   0.13230   Biso      1.000     O          -0.562581           
         O4        1.0000    0.75610   0.84280   0.14230   Biso      1.000     O          -0.5650569999999999           
         O5        1.0000    0.76040   0.85500   0.30120   Biso      1.000     O          -0.5526979999999999           
         O6        1.0000    0.55030   0.64280   0.13310   Biso      1.000     O          -0.546718           
         O7        1.0000    0.71420   0.47890   0.28940   Biso      1.000     O          -0.570195           
         O8        1.0000    0.92130   0.67620   0.29260   Biso      1.000     O          -0.560431           
         O9        1.0000    0.91950   0.66880   0.13410   Biso      1.000     O          -0.543465           
         O10       1.0000    0.08050   0.33120   0.86590   Biso      1.000     O          -0.543465           
         O11       1.0000    0.23960   0.14500   0.69880   Biso      1.000     O          -0.5526979999999999           
         O12       1.0000    0.24390   0.15720   0.85770   Biso      1.000     O          -0.5650569999999999           
         O13       1.0000    0.28580   0.52110   0.71060   Biso      1.000     O          -0.570194           
         O14       1.0000    0.28390   0.53170   0.86770   Biso      1.000     O          -0.562581           
         O15       1.0000    0.44680   0.34500   0.70790   Biso      1.000     O          -0.5600689999999999           
         O16       1.0000    0.44970   0.35720   0.86690   Biso      1.000     O          -0.546718           
         Zn1       1.0000    0.73496   0.65562   0.10922   Biso      1.000     Zn          0.840075  
         Zn2       1.0000    0.26209   0.33156   0.68186   Biso      1.000     Zn          0.841952  
         Zn3       1.0000    0.73791   0.66844   0.31814   Biso      1.000     Zn          0.841952  
         Zn4       1.0000    0.26504   0.34438   0.89078   Biso      1.000     Zn          0.840075 