
##########################################################################
#               Crystallographic Information Format file
#               Produced by PyCifRW module
#
#  This is a CIF file.  CIF has been adopted by the International
#  Union of Crystallography as the standard for data archiving and
#  transmission.
#
#  For information on this file format, follow the CIF links at
#  http://www.iucr.org
##########################################################################

data_image0

_cell_length_a                          7.953
_cell_length_b                          11.0992
_cell_length_c                          11.0992
_cell_angle_alpha                       65.5166
_cell_angle_beta                        76.1816
_cell_angle_gamma                       103.818
_symmetry_space_group_name_H-M          'P 1'
_symmetry_int_tables_number             1
loop_
  _symmetry_equiv_pos_as_xyz
         'x, y, z' 
loop_
  _atom_site_label
  _atom_site_occupancy
  _atom_site_fract_x
  _atom_site_fract_y
  _atom_site_fract_z
  _atom_site_thermal_displace_type
  _atom_site_B_iso_or_equiv
  _atom_site_type_symbol
  _atom_site_charge
         C1        1.0000    0.11350   0.25620   0.31790   Biso      1.000     C          0.471806  
         C2        1.0000    0.57920   0.71700   0.86600   Biso      1.000     C          0.494557  
         C3        1.0000    0.61350   0.68210   0.74380   Biso      1.000     C          0.471821  
         C4        1.0000    0.86220   0.41700   0.71700   Biso      1.000     C          0.494362  
         C5        1.0000    0.93140   0.57410   0.68210   Biso      1.000     C          0.468201  
         C6        1.0000    0.35730   0.74380   0.57410   Biso      1.000     C          0.468572  
         C7        1.0000    0.44520   0.86600   0.41700   Biso      1.000     C          0.493429  
         C8        1.0000    0.07920   0.13400   0.28300   Biso      1.000     C          0.494554  
         C9        1.0000    0.85730   0.42590   0.25620   Biso      1.000     C          0.468588  
         C10       1.0000    0.94520   0.58300   0.13400   Biso      1.000     C          0.493388  
         C11       1.0000    0.43140   0.31790   0.42590   Biso      1.000     C          0.468238  
         C12       1.0000    0.36220   0.28300   0.58300   Biso      1.000     C          0.494331  
         H1        1.0000    0.18840   0.48920   0.84460   Biso      1.000     H          0.435369  
         H2        1.0000    0.68840   0.15540   0.51080   Biso      1.000     H          0.435353  
         H3        1.0000    0.53300   0.33380   0.15540   Biso      1.000     H          0.433947  
         H4        1.0000    0.19920   0.51080   0.33380   Biso      1.000     H          0.433569  
         H5        1.0000    0.69920   0.66620   0.48920   Biso      1.000     H          0.433559  
         H6        1.0000    0.03300   0.84460   0.66620   Biso      1.000     H          0.433949  
         In1       1.0000    0.95190   0.59722   0.39772   Biso      1.000     In          1.583209  
         In2       1.0000    0.45190   0.60228   0.40278   Biso      1.000     In          1.583193  
         In3       1.0000    0.85468   0.40278   0.99494   Biso      1.000     In          1.582867  
         In4       1.0000    0.84962   0.99494   0.60228   Biso      1.000     In          1.583499  
         In5       1.0000    0.35468   0.00506   0.59722   Biso      1.000     In          1.582869  
         In6       1.0000    0.34962   0.39772   0.00506   Biso      1.000     In          1.583491  
         O1        1.0000    0.04470   0.22100   0.44890   Biso      1.000     O          -0.529526           
         O2        1.0000    0.96400   0.01390   0.38070   Biso      1.000     O          -0.500936           
         O3        1.0000    0.42580   0.21630   0.40370   Biso      1.000     O          -0.499881           
         O4        1.0000    0.31860   0.15750   0.67520   Biso      1.000     O          -0.511276           
         O5        1.0000    0.57110   0.36120   0.06940   Biso      1.000     O          -0.93914  
         O6        1.0000    0.82370   0.33010   0.22100   Biso      1.000     O          -0.528311           
         O7        1.0000    0.20950   0.38000   0.21630   Biso      1.000     O          -0.501866           
         O8        1.0000    0.64050   0.06940   0.56940   Biso      1.000     O          -0.940876           
         O9        1.0000    0.16110   0.16730   0.15750   Biso      1.000     O          -0.512123           
         O10       1.0000    0.20990   0.56940   0.36120   Biso      1.000     O          -0.938483           
         O11       1.0000    0.49360   0.44890   0.33010   Biso      1.000     O          -0.528268           
         O12       1.0000    0.34470   0.38070   0.60540   Biso      1.000     O          -0.500755           
         O13       1.0000    0.95010   0.60540   0.01390   Biso      1.000     O          -0.499896           
         O14       1.0000    0.66110   0.84250   0.83270   Biso      1.000     O          -0.512136           
         O15       1.0000    0.84470   0.39460   0.61930   Biso      1.000     O          -0.50077  
         O16       1.0000    0.45010   0.98610   0.39460   Biso      1.000     O          -0.499899           
         O17       1.0000    0.32370   0.77900   0.66990   Biso      1.000     O          -0.528301           
         O18       1.0000    0.07110   0.93060   0.63880   Biso      1.000     O          -0.939144           
         O19       1.0000    0.81860   0.32480   0.84250   Biso      1.000     O          -0.511294           
         O20       1.0000    0.92580   0.59630   0.78370   Biso      1.000     O          -0.499846           
         O21       1.0000    0.46400   0.61930   0.98610   Biso      1.000     O          -0.500934           
         O22       1.0000    0.54470   0.55110   0.77900   Biso      1.000     O          -0.529532           
         O23       1.0000    0.14050   0.43060   0.93060   Biso      1.000     O          -0.940887           
         O24       1.0000    0.49380   0.83270   0.32480   Biso      1.000     O          -0.511769           
         O25       1.0000    0.32950   0.62000   0.59630   Biso      1.000     O          -0.500257           
         O26       1.0000    0.82950   0.40370   0.38000   Biso      1.000     O          -0.500254           
         O27       1.0000    0.99360   0.66990   0.55110   Biso      1.000     O          -0.52827  
         O28       1.0000    0.70990   0.63880   0.43060   Biso      1.000     O          -0.938473           
         O29       1.0000    0.70950   0.78370   0.62000   Biso      1.000     O          -0.501875           
         O30       1.0000    0.99380   0.67520   0.16730   Biso      1.000     O          -0.511741 