
##########################################################################
#               Crystallographic Information Format file
#               Produced by PyCifRW module
#
#  This is a CIF file.  CIF has been adopted by the International
#  Union of Crystallography as the standard for data archiving and
#  transmission.
#
#  For information on this file format, follow the CIF links at
#  http://www.iucr.org
##########################################################################

data_image0

_cell_length_a                          9.3582
_cell_length_b                          10.953
_cell_length_c                          24.37
_cell_angle_alpha                       90
_cell_angle_beta                        90
_cell_angle_gamma                       90
_symmetry_space_group_name_H-M          'P 1'
_symmetry_int_tables_number             1
loop_
  _symmetry_equiv_pos_as_xyz
         'x, y, z' 
loop_
  _atom_site_label
  _atom_site_occupancy
  _atom_site_fract_x
  _atom_site_fract_y
  _atom_site_fract_z
  _atom_site_thermal_displace_type
  _atom_site_B_iso_or_equiv
  _atom_site_type_symbol
  _atom_site_charge
         C1        1.0000    0.16450   0.46410   0.01039   Biso      1.000     C          0.598187  
         C2        1.0000    0.16430   0.06770   0.43143   Biso      1.000     C          -0.40870300000000004          
         C3        1.0000    0.04140   0.12770   0.46047   Biso      1.000     C          0.684379  
         C4        1.0000    0.09650   0.16930   0.63871   Biso      1.000     C          0.119379  
         C5        1.0000    0.03550   0.16320   0.68982   Biso      1.000     C          -0.19453499999999999          
         C6        1.0000    0.03230   0.26870   0.72213   Biso      1.000     C          0.102324  
         C7        1.0000    0.08850   0.37420   0.69965   Biso      1.000     C          -0.195474           
         C8        1.0000    0.31230   0.09610   0.45416   Biso      1.000     C          0.078778  
         C9        1.0000    0.14630   0.37100   0.64787   Biso      1.000     C          0.10134   
         C10       1.0000    0.33570   0.43230   0.93143   Biso      1.000     C          -0.40913499999999997          
         C11       1.0000    0.45860   0.37230   0.96047   Biso      1.000     C          0.684765  
         C12       1.0000    0.40350   0.33070   0.13871   Biso      1.000     C          0.119209  
         C13       1.0000    0.46450   0.33680   0.18982   Biso      1.000     C          -0.194674           
         C14       1.0000    0.46770   0.23130   0.22213   Biso      1.000     C          0.102059  
         C15       1.0000    0.41150   0.12580   0.19965   Biso      1.000     C          -0.195641           
         C16       1.0000    0.18770   0.40390   0.95416   Biso      1.000     C          0.07855   
         C17       1.0000    0.35370   0.12900   0.14787   Biso      1.000     C          0.10117899999999999           
         C18       1.0000    0.33550   0.03590   0.51039   Biso      1.000     C          0.59805   
         C19       1.0000    0.58850   0.12580   0.30035   Biso      1.000     C          -0.195609           
         C20       1.0000    0.96450   0.16320   0.81018   Biso      1.000     C          -0.194563           
         C21       1.0000    0.90350   0.16930   0.86129   Biso      1.000     C          0.11942699999999999           
         C22       1.0000    0.95860   0.12770   0.03953   Biso      1.000     C          0.68466   
         C23       1.0000    0.83570   0.06770   0.06857   Biso      1.000     C          -0.408984           
         C24       1.0000    0.68770   0.09610   0.04584   Biso      1.000     C          0.078791  
         C25       1.0000    0.66450   0.03590   0.98961   Biso      1.000     C          0.598504  
         C26       1.0000    0.64630   0.12900   0.35213   Biso      1.000     C          0.10105599999999999           
         C27       1.0000    0.85370   0.37100   0.85213   Biso      1.000     C          0.101476  
         C28       1.0000    0.81230   0.40390   0.54584   Biso      1.000     C          0.07866000000000001           
         C29       1.0000    0.66430   0.43230   0.56857   Biso      1.000     C          -0.409333           
         C30       1.0000    0.54140   0.37230   0.53953   Biso      1.000     C          0.684746  
         C31       1.0000    0.59650   0.33070   0.36129   Biso      1.000     C          0.11911500000000001           
         C32       1.0000    0.53550   0.33680   0.31018   Biso      1.000     C          -0.194658           
         C33       1.0000    0.53230   0.23130   0.27787   Biso      1.000     C          0.10201   
         C34       1.0000    0.83550   0.46410   0.48961   Biso      1.000     C          0.5984550000000001  
         C35       1.0000    0.33550   0.96410   0.01039   Biso      1.000     C          0.5983430000000001  
         C36       1.0000    0.31230   0.90390   0.95416   Biso      1.000     C          0.078749  
         C37       1.0000    0.16430   0.93230   0.93143   Biso      1.000     C          -0.408979           
         C38       1.0000    0.90350   0.83070   0.36129   Biso      1.000     C          0.11926099999999999           
         C39       1.0000    0.96450   0.83680   0.31018   Biso      1.000     C          -0.19461099999999998          
         C40       1.0000    0.96770   0.73130   0.27787   Biso      1.000     C          0.102092  
         C41       1.0000    0.91150   0.62580   0.30035   Biso      1.000     C          -0.19547  
         C42       1.0000    0.85370   0.62900   0.35213   Biso      1.000     C          0.101293  
         C43       1.0000    0.83550   0.53590   0.98961   Biso      1.000     C          0.598723  
         C44       1.0000    0.95860   0.87230   0.53953   Biso      1.000     C          0.684654  
         C45       1.0000    0.81230   0.59610   0.04584   Biso      1.000     C          0.078925  
         C46       1.0000    0.54140   0.62770   0.03953   Biso      1.000     C          0.684822  
         C47       1.0000    0.59650   0.66930   0.86129   Biso      1.000     C          0.11911500000000001           
         C48       1.0000    0.53550   0.66320   0.81018   Biso      1.000     C          -0.194803           
         C49       1.0000    0.53230   0.76870   0.77787   Biso      1.000     C          0.101975  
         C50       1.0000    0.58850   0.87420   0.80035   Biso      1.000     C          -0.195766           
         C51       1.0000    0.64630   0.87100   0.85213   Biso      1.000     C          0.101188  
         C52       1.0000    0.66430   0.56770   0.06857   Biso      1.000     C          -0.409356           
         C53       1.0000    0.83570   0.93230   0.56857   Biso      1.000     C          -0.409058           
         C54       1.0000    0.68770   0.90390   0.54584   Biso      1.000     C          0.078571  
         C55       1.0000    0.66450   0.96410   0.48961   Biso      1.000     C          0.59829   
         C56       1.0000    0.04140   0.87230   0.96047   Biso      1.000     C          0.6844779999999999  
         C57       1.0000    0.09650   0.83070   0.13871   Biso      1.000     C          0.11948299999999999           
         C58       1.0000    0.03550   0.83680   0.18982   Biso      1.000     C          -0.1947   
         C59       1.0000    0.03230   0.73130   0.22213   Biso      1.000     C          0.10242000000000001           
         C60       1.0000    0.08850   0.62580   0.19965   Biso      1.000     C          -0.1956   
         C61       1.0000    0.14630   0.62900   0.14787   Biso      1.000     C          0.101405  
         C62       1.0000    0.16450   0.53590   0.51039   Biso      1.000     C          0.59845   
         C63       1.0000    0.18770   0.59610   0.45416   Biso      1.000     C          0.07873200000000001           
         C64       1.0000    0.33570   0.56770   0.43143   Biso      1.000     C          -0.409478           
         C65       1.0000    0.45860   0.62770   0.46047   Biso      1.000     C          0.684678  
         C66       1.0000    0.40350   0.66930   0.63871   Biso      1.000     C          0.118952  
         C67       1.0000    0.46450   0.66320   0.68982   Biso      1.000     C          -0.194774           
         C68       1.0000    0.46770   0.76870   0.72213   Biso      1.000     C          0.101924  
         C69       1.0000    0.41150   0.87420   0.69965   Biso      1.000     C          -0.195693           
         C70       1.0000    0.35370   0.87100   0.64787   Biso      1.000     C          0.100922  
         C71       1.0000    0.96770   0.26870   0.77787   Biso      1.000     C          0.10215700000000001           
         C72       1.0000    0.91150   0.37420   0.80035   Biso      1.000     C          -0.19551300000000002          
         Co1       1.0000    0.75735   0.27013   0.96162   Biso      1.000     Co          0.854524  
         Co2       1.0000    0.74265   0.22987   0.46162   Biso      1.000     Co          0.853289  
         Co3       1.0000    0.24265   0.27013   0.53838   Biso      1.000     Co          0.852176  
         Co4       1.0000    0.25735   0.22987   0.03838   Biso      1.000     Co          0.85382   
         Co5       1.0000    0.24265   0.72987   0.03838   Biso      1.000     Co          0.8489899999999999  
         Co6       1.0000    0.25735   0.77013   0.53838   Biso      1.000     Co          0.854196  
         Co7       1.0000    0.75735   0.72987   0.46162   Biso      1.000     Co          0.8522639999999999  
         Co8       1.0000    0.74265   0.77013   0.96162   Biso      1.000     Co          0.8579899999999999  
         H1        1.0000    0.58730   0.94680   0.78060   Biso      1.000     H          0.13203099999999998           
         H2        1.0000    0.68360   0.05710   0.36650   Biso      1.000     H          0.09711499999999999           
         H3        1.0000    0.38450   0.06540   0.42850   Biso      1.000     H          0.09645   
         H4        1.0000    0.15020   0.98000   0.43270   Biso      1.000     H          0.16272799999999998           
         H5        1.0000    0.16190   0.09210   0.39320   Biso      1.000     H          0.146956  
         H6        1.0000    0.18360   0.44290   0.63350   Biso      1.000     H          0.09717999999999999           
         H7        1.0000    0.99700   0.09040   0.70270   Biso      1.000     H          0.133358  
         H8        1.0000    0.08730   0.44680   0.71940   Biso      1.000     H          0.13221   
         H9        1.0000    0.58730   0.05320   0.28060   Biso      1.000     H          0.132129  
         H10       1.0000    0.11550   0.43460   0.92850   Biso      1.000     H          0.096456  
         H11       1.0000    0.09950   0.09830   0.61780   Biso      1.000     H          0.10146000000000001           
         H12       1.0000    0.49700   0.40960   0.29730   Biso      1.000     H          0.13328900000000002           
         H13       1.0000    0.88450   0.43460   0.57150   Biso      1.000     H          0.09642300000000001           
         H14       1.0000    0.66190   0.40790   0.60680   Biso      1.000     H          0.14689000000000002           
         H15       1.0000    0.65020   0.52000   0.56730   Biso      1.000     H          0.162527  
         H16       1.0000    0.34980   0.52000   0.93270   Biso      1.000     H          0.162517  
         H17       1.0000    0.81640   0.44290   0.86650   Biso      1.000     H          0.097255  
         H18       1.0000    0.91270   0.44680   0.78060   Biso      1.000     H          0.132177  
         H19       1.0000    0.00300   0.09040   0.79730   Biso      1.000     H          0.133322  
         H20       1.0000    0.90050   0.09830   0.88220   Biso      1.000     H          0.101487  
         H21       1.0000    0.83810   0.09210   0.10680   Biso      1.000     H          0.146846  
         H22       1.0000    0.84980   0.98000   0.06730   Biso      1.000     H          0.162653  
         H23       1.0000    0.68360   0.94290   0.86650   Biso      1.000     H          0.09704700000000001           
         H24       1.0000    0.59950   0.40170   0.38220   Biso      1.000     H          0.101441  
         H25       1.0000    0.33810   0.40790   0.89320   Biso      1.000     H          0.14688199999999998           
         H26       1.0000    0.61550   0.06540   0.07150   Biso      1.000     H          0.09630599999999999           
         H27       1.0000    0.50300   0.40960   0.20270   Biso      1.000     H          0.133287  
         H28       1.0000    0.40050   0.40170   0.11780   Biso      1.000     H          0.101444  
         H29       1.0000    0.49700   0.59040   0.79730   Biso      1.000     H          0.133182  
         H30       1.0000    0.66190   0.59210   0.10680   Biso      1.000     H          0.146832  
         H31       1.0000    0.65020   0.48000   0.06730   Biso      1.000     H          0.16228099999999998           
         H32       1.0000    0.88450   0.56540   0.07150   Biso      1.000     H          0.09627899999999999           
         H33       1.0000    0.81640   0.55710   0.36650   Biso      1.000     H          0.097175  
         H34       1.0000    0.91270   0.55320   0.28060   Biso      1.000     H          0.132154  
         H35       1.0000    0.00300   0.90960   0.29730   Biso      1.000     H          0.133279  
         H36       1.0000    0.90050   0.90170   0.38220   Biso      1.000     H          0.101425  
         H37       1.0000    0.83810   0.90790   0.60680   Biso      1.000     H          0.146953  
         H38       1.0000    0.84980   0.02000   0.56730   Biso      1.000     H          0.162602  
         H39       1.0000    0.61550   0.93460   0.57150   Biso      1.000     H          0.096468  
         H40       1.0000    0.31640   0.94290   0.63350   Biso      1.000     H          0.09701599999999999           
         H41       1.0000    0.41270   0.94680   0.71940   Biso      1.000     H          0.132054  
         H42       1.0000    0.59950   0.59830   0.88220   Biso      1.000     H          0.101286  
         H43       1.0000    0.40050   0.59830   0.61780   Biso      1.000     H          0.101289  
         H44       1.0000    0.50300   0.59040   0.70270   Biso      1.000     H          0.133202  
         H45       1.0000    0.31640   0.05710   0.13350   Biso      1.000     H          0.097124  
         H46       1.0000    0.38450   0.93460   0.92850   Biso      1.000     H          0.09631100000000001           
         H47       1.0000    0.15020   0.02000   0.93270   Biso      1.000     H          0.162667  
         H48       1.0000    0.16190   0.90790   0.89320   Biso      1.000     H          0.146727  
         H49       1.0000    0.99700   0.90960   0.20270   Biso      1.000     H          0.13332   
         H50       1.0000    0.09950   0.90170   0.11780   Biso      1.000     H          0.101523  
         H51       1.0000    0.18360   0.55710   0.13350   Biso      1.000     H          0.09718500000000001           
         H52       1.0000    0.11550   0.56540   0.42850   Biso      1.000     H          0.09624500000000001           
         H53       1.0000    0.34980   0.48000   0.43270   Biso      1.000     H          0.162298  
         H54       1.0000    0.41270   0.05320   0.21940   Biso      1.000     H          0.132113  
         H55       1.0000    0.33810   0.59210   0.39320   Biso      1.000     H          0.14668299999999998           
         H56       1.0000    0.08730   0.55320   0.21940   Biso      1.000     H          0.132174  
         N1        1.0000    0.34810   0.77090   0.61714   Biso      1.000     N          -0.17735599999999999          
         N2        1.0000    0.65190   0.77090   0.88286   Biso      1.000     N          -0.17808  
         N3        1.0000    0.15190   0.72910   0.11714   Biso      1.000     N          -0.175557           
         N4        1.0000    0.84810   0.72910   0.38286   Biso      1.000     N          -0.17615999999999998          
         N5        1.0000    0.15190   0.27090   0.61714   Biso      1.000     N          -0.176209           
         N6        1.0000    0.65190   0.22910   0.38286   Biso      1.000     N          -0.17687999999999998          
         N7        1.0000    0.84810   0.27090   0.88286   Biso      1.000     N          -0.176493           
         N8        1.0000    0.34810   0.22910   0.11714   Biso      1.000     N          -0.176699           
         O1        1.0000    0.35390   0.07694   0.00924   Biso      1.000     O          -0.48878699999999997          
         O2        1.0000    0.32500   0.77388   0.95786   Biso      1.000     O          -0.462034           
         O3        1.0000    0.06160   0.82765   0.00837   Biso      1.000     O          -0.490687           
         O4        1.0000    0.92310   0.87080   0.93667   Biso      1.000     O          -0.502839           
         O5        1.0000    0.16500   0.60160   0.55252   Biso      1.000     O          -0.48486899999999994          
         O6        1.0000    0.14610   0.42306   0.50924   Biso      1.000     O          -0.488737           
         O7        1.0000    0.17500   0.72612   0.45786   Biso      1.000     O          -0.46562700000000007          
         O8        1.0000    0.43840   0.67235   0.50837   Biso      1.000     O          -0.49118199999999995          
         O9        1.0000    0.66500   0.89840   0.44748   Biso      1.000     O          -0.486155           
         O10       1.0000    0.64610   0.07694   0.49076   Biso      1.000     O          -0.488853           
         O11       1.0000    0.67500   0.77388   0.54214   Biso      1.000     O          -0.462863           
         O12       1.0000    0.93840   0.82765   0.49163   Biso      1.000     O          -0.48987600000000003          
         O13       1.0000    0.07690   0.87080   0.56333   Biso      1.000     O          -0.502339           
         O14       1.0000    0.83500   0.60160   0.94748   Biso      1.000     O          -0.487022           
         O15       1.0000    0.85390   0.42306   0.99076   Biso      1.000     O          -0.48979700000000004          
         O16       1.0000    0.82500   0.72612   0.04214   Biso      1.000     O          -0.465571           
         O17       1.0000    0.33500   0.89840   0.05252   Biso      1.000     O          -0.48505699999999996          
         O18       1.0000    0.57690   0.62920   0.43667   Biso      1.000     O          -0.5028229999999999           
         O19       1.0000    0.57690   0.37080   0.93667   Biso      1.000     O          -0.50376  
         O20       1.0000    0.66500   0.10160   0.94748   Biso      1.000     O          -0.486728           
         O21       1.0000    0.17500   0.27388   0.95786   Biso      1.000     O          -0.463899           
         O22       1.0000    0.56160   0.67235   0.99163   Biso      1.000     O          -0.490868           
         O23       1.0000    0.64610   0.92306   0.99076   Biso      1.000     O          -0.489918           
         O24       1.0000    0.67500   0.22612   0.04214   Biso      1.000     O          -0.462633           
         O25       1.0000    0.93840   0.17235   0.99163   Biso      1.000     O          -0.49071000000000004          
         O26       1.0000    0.07690   0.12920   0.06333   Biso      1.000     O          -0.503203           
         O27       1.0000    0.83500   0.39840   0.44748   Biso      1.000     O          -0.486225           
         O28       1.0000    0.85390   0.57694   0.49076   Biso      1.000     O          -0.48866000000000004          
         O29       1.0000    0.82500   0.27388   0.54214   Biso      1.000     O          -0.464521           
         O30       1.0000    0.56160   0.32765   0.49163   Biso      1.000     O          -0.489756           
         O31       1.0000    0.42310   0.37080   0.56333   Biso      1.000     O          -0.5022770000000001           
         O32       1.0000    0.33500   0.10160   0.55252   Biso      1.000     O          -0.486691           
         O33       1.0000    0.35390   0.92306   0.50924   Biso      1.000     O          -0.487771           
         O34       1.0000    0.32500   0.22612   0.45786   Biso      1.000     O          -0.461401           
         O35       1.0000    0.06160   0.17235   0.50837   Biso      1.000     O          -0.49008500000000005          
         O36       1.0000    0.92310   0.12920   0.43667   Biso      1.000     O          -0.501739           
         O37       1.0000    0.16500   0.39840   0.05252   Biso      1.000     O          -0.48581  
         O38       1.0000    0.14610   0.57694   0.00924   Biso      1.000     O          -0.487178           
         O39       1.0000    0.43840   0.32765   0.00837   Biso      1.000     O          -0.49000900000000003          
         O40       1.0000    0.42310   0.62920   0.06333   Biso      1.000     O          -0.502158 