
##########################################################################
#               Crystallographic Information Format file
#               Produced by PyCifRW module
#
#  This is a CIF file.  CIF has been adopted by the International
#  Union of Crystallography as the standard for data archiving and
#  transmission.
#
#  For information on this file format, follow the CIF links at
#  http://www.iucr.org
##########################################################################

data_image0

_cell_length_a                          15.156
_cell_length_b                          15.657
_cell_length_c                          26.967
_cell_angle_alpha                       81.603
_cell_angle_beta                        78.042
_cell_angle_gamma                       73.529
_symmetry_space_group_name_H-M          'P 1'
_symmetry_int_tables_number             1
loop_
  _symmetry_equiv_pos_as_xyz
         'x, y, z' 
loop_
  _atom_site_label
  _atom_site_occupancy
  _atom_site_fract_x
  _atom_site_fract_y
  _atom_site_fract_z
  _atom_site_thermal_displace_type
  _atom_site_B_iso_or_equiv
  _atom_site_type_symbol
  _atom_site_charge
         C1        1.0000    0.80880   0.39340   0.55750   Biso      1.000     C          -0.198437           
         C2        1.0000    0.70220   0.72370   0.00550   Biso      1.000     C          -0.18086  
         C3        1.0000    0.57950   0.70260   0.13420   Biso      1.000     C          -0.192171           
         C4        1.0000    0.60040   0.77740   0.10330   Biso      1.000     C          0.188204  
         C5        1.0000    0.52910   0.84380   0.08810   Biso      1.000     C          -0.191178           
         C6        1.0000    0.88420   0.80140   0.84720   Biso      1.000     C          0.214259  
         C7        1.0000    0.96110   0.77780   0.80820   Biso      1.000     C          -0.197831           
         C8        1.0000    0.98890   0.84530   0.77410   Biso      1.000     C          -0.099093           
         C9        1.0000    0.74060   0.71170   0.95700   Biso      1.000     C          -0.165143           
         C10       1.0000    0.12830   0.60620   0.18050   Biso      1.000     C          0.561194  
         C11       1.0000    0.15200   0.43920   0.19950   Biso      1.000     C          -0.078993           
         C12       1.0000    0.15530   0.35920   0.18270   Biso      1.000     C          -0.206534           
         C13       1.0000    0.13360   0.35350   0.13640   Biso      1.000     C          0.19611   
         C14       1.0000    0.10670   0.43290   0.10330   Biso      1.000     C          -0.2052   
         C15       1.0000    0.10330   0.51300   0.12100   Biso      1.000     C          -0.089233           
         C16       1.0000    0.11710   0.16280   0.76380   Biso      1.000     C          0.632005  
         C17       1.0000    0.16440   0.18140   0.80320   Biso      1.000     C          -0.064706           
         C18       1.0000    0.12690   0.51890   0.16580   Biso      1.000     C          -0.020811           
         C19       1.0000    0.81720   0.74430   0.93320   Biso      1.000     C          0.171552  
         C20       1.0000    0.84930   0.78910   0.96200   Biso      1.000     C          -0.168366           
         C21       1.0000    0.81310   0.80370   0.01070   Biso      1.000     C          -0.181587           
         C22       1.0000    0.48680   0.70050   0.15090   Biso      1.000     C          -0.087451           
         C23       1.0000    0.41650   0.77000   0.13640   Biso      1.000     C          0.005039  
         C24       1.0000    0.43830   0.84060   0.10560   Biso      1.000     C          -0.092091           
         C25       1.0000    0.97210   0.00800   0.74080   Biso      1.000     C          0.600886  
         C26       1.0000    0.94050   0.93510   0.78170   Biso      1.000     C          -0.055886           
         C27       1.0000    0.86710   0.95470   0.82050   Biso      1.000     C          -0.075568           
         C28       1.0000    0.83980   0.88710   0.85310   Biso      1.000     C          -0.192039           
         C29       1.0000    0.59090   0.49420   0.50880   Biso      1.000     C          0.183684  
         C30       1.0000    0.52700   0.57730   0.50030   Biso      1.000     C          -0.176082           
         C31       1.0000    0.56180   0.41950   0.50750   Biso      1.000     C          -0.182429           
         C32       1.0000    0.71420   0.43650   0.55890   Biso      1.000     C          0.202639  
         C33       1.0000    0.84250   0.34380   0.60010   Biso      1.000     C          -0.096849           
         C34       1.0000    0.68850   0.36860   0.64450   Biso      1.000     C          -0.06508  
         C35       1.0000    0.65580   0.41910   0.60230   Biso      1.000     C          -0.205128           
         C36       1.0000    0.81900   0.28230   0.68820   Biso      1.000     C          0.622557  
         C37       1.0000    0.78100   0.33130   0.64380   Biso      1.000     C          -0.039803           
         C38       1.0000    0.73850   0.76700   0.03460   Biso      1.000     C          0.17427   
         C39       1.0000    0.11580   0.23710   0.84150   Biso      1.000     C          -0.083236           
         C40       1.0000    0.16030   0.25080   0.87550   Biso      1.000     C          -0.193054           
         C41       1.0000    0.25700   0.20720   0.87630   Biso      1.000     C          0.203375  
         C42       1.0000    0.30500   0.15500   0.83730   Biso      1.000     C          -0.20896  
         C43       1.0000    0.15750   0.65620   0.39990   Biso      1.000     C          -0.09685  
         C44       1.0000    0.31150   0.63140   0.35550   Biso      1.000     C          -0.065078           
         C45       1.0000    0.34420   0.58090   0.39770   Biso      1.000     C          -0.205139           
         C46       1.0000    0.18100   0.71770   0.31180   Biso      1.000     C          0.622557  
         C47       1.0000    0.21900   0.66870   0.35620   Biso      1.000     C          -0.039803           
         C48       1.0000    0.26150   0.23300   0.96540   Biso      1.000     C          0.17427   
         C49       1.0000    0.18690   0.19630   0.98930   Biso      1.000     C          -0.181612           
         C50       1.0000    0.15070   0.21090   0.03800   Biso      1.000     C          -0.168354           
         C51       1.0000    0.18280   0.25570   0.06680   Biso      1.000     C          0.171566  
         C52       1.0000    0.25940   0.28830   0.04300   Biso      1.000     C          -0.165172           
         C53       1.0000    0.29780   0.27630   0.99450   Biso      1.000     C          -0.180832           
         C54       1.0000    0.42050   0.29740   0.86580   Biso      1.000     C          -0.192171           
         C55       1.0000    0.39960   0.22260   0.89670   Biso      1.000     C          0.188204  
         C56       1.0000    0.47090   0.15620   0.91190   Biso      1.000     C          -0.191178           
         C57       1.0000    0.11580   0.19860   0.15280   Biso      1.000     C          0.214259  
         C58       1.0000    0.03890   0.22220   0.19180   Biso      1.000     C          -0.197831           
         C59       1.0000    0.01110   0.15470   0.22590   Biso      1.000     C          -0.099093           
         C60       1.0000    0.19120   0.60660   0.44250   Biso      1.000     C          -0.198436           
         C61       1.0000    0.31690   0.76890   0.15570   Biso      1.000     C          0.585041  
         C62       1.0000    0.28580   0.56350   0.44110   Biso      1.000     C          0.202649  
         C63       1.0000    0.47300   0.42270   0.49970   Biso      1.000     C          -0.17608  
         C64       1.0000    0.25840   0.13970   0.80220   Biso      1.000     C          -0.080679           
         C65       1.0000    0.12340   0.27630   0.60950   Biso      1.000     C          0.599437  
         C66       1.0000    0.17360   0.33900   0.57640   Biso      1.000     C          -0.040937           
         C67       1.0000    0.22560   0.37910   0.59560   Biso      1.000     C          -0.080601           
         C68       1.0000    0.27320   0.43800   0.56580   Biso      1.000     C          -0.219563           
         C69       1.0000    0.26950   0.45480   0.51330   Biso      1.000     C          0.187611  
         C70       1.0000    0.21660   0.41170   0.49320   Biso      1.000     C          -0.198909           
         C71       1.0000    0.17040   0.35390   0.52370   Biso      1.000     C          -0.085647           
         C72       1.0000    0.68310   0.23110   0.84430   Biso      1.000     C          0.58504   
         C73       1.0000    0.51320   0.29950   0.84910   Biso      1.000     C          -0.087451           
         C74       1.0000    0.58350   0.23000   0.86360   Biso      1.000     C          0.005039  
         C75       1.0000    0.56170   0.15940   0.89440   Biso      1.000     C          -0.092091           
         C76       1.0000    0.02790   0.99200   0.25920   Biso      1.000     C          0.600886  
         C77       1.0000    0.05950   0.06490   0.21830   Biso      1.000     C          -0.055886           
         C78       1.0000    0.13290   0.04530   0.17950   Biso      1.000     C          -0.075568           
         C79       1.0000    0.16020   0.11290   0.14690   Biso      1.000     C          -0.192039           
         C80       1.0000    0.40910   0.50580   0.49120   Biso      1.000     C          0.183683  
         C81       1.0000    0.43820   0.58050   0.49250   Biso      1.000     C          -0.182428           
         C82       1.0000    0.82960   0.64610   0.47630   Biso      1.000     C          -0.085652           
         C83       1.0000    0.78340   0.58830   0.50680   Biso      1.000     C          -0.198904           
         C84       1.0000    0.84470   0.64080   0.81730   Biso      1.000     C          -0.206537           
         C85       1.0000    0.87170   0.39380   0.81950   Biso      1.000     C          0.561196  
         C86       1.0000    0.87310   0.48110   0.83420   Biso      1.000     C          -0.020831           
         C87       1.0000    0.84800   0.56080   0.80050   Biso      1.000     C          -0.078988           
         C88       1.0000    0.86640   0.64650   0.86360   Biso      1.000     C          0.19611   
         C89       1.0000    0.89330   0.56710   0.89670   Biso      1.000     C          -0.205203           
         C90       1.0000    0.73050   0.54520   0.48670   Biso      1.000     C          0.18761   
         C91       1.0000    0.88290   0.83720   0.23620   Biso      1.000     C          0.632005  
         C92       1.0000    0.83560   0.81860   0.19680   Biso      1.000     C          -0.064711           
         C93       1.0000    0.89670   0.48700   0.87900   Biso      1.000     C          -0.089214           
         C94       1.0000    0.83970   0.74920   0.12450   Biso      1.000     C          -0.193096           
         C95       1.0000    0.74300   0.79280   0.12370   Biso      1.000     C          0.203379  
         C96       1.0000    0.69500   0.84500   0.16270   Biso      1.000     C          -0.20896  
         C97       1.0000    0.74160   0.86030   0.19780   Biso      1.000     C          -0.080679           
         C98       1.0000    0.87660   0.72370   0.39050   Biso      1.000     C          0.599437  
         C99       1.0000    0.82640   0.66100   0.42360   Biso      1.000     C          -0.040936           
         C100      1.0000    0.77440   0.62090   0.40440   Biso      1.000     C          -0.080601           
         C101      1.0000    0.72680   0.56200   0.43420   Biso      1.000     C          -0.219563           
         C102      1.0000    0.88420   0.76290   0.15850   Biso      1.000     C          -0.083195           
         H1        1.0000    0.60350   0.36380   0.51210   Biso      1.000     H          0.125591  
         H2        1.0000    0.85050   0.39800   0.52730   Biso      1.000     H          0.122505  
         H3        1.0000    0.90630   0.31940   0.59890   Biso      1.000     H          0.11639   
         H4        1.0000    0.64620   0.36000   0.67390   Biso      1.000     H          0.123214  
         H5        1.0000    0.59170   0.44190   0.60370   Biso      1.000     H          0.121269  
         H6        1.0000    0.83660   0.83700   0.02810   Biso      1.000     H          0.129306  
         H7        1.0000    0.29030   0.10090   0.77750   Biso      1.000     H          0.122372  
         H8        1.0000    0.71590   0.68100   0.93870   Biso      1.000     H          0.126335  
         H9        1.0000    0.65030   0.70260   0.02000   Biso      1.000     H          0.126074  
         H10       1.0000    0.62750   0.65470   0.14340   Biso      1.000     H          0.129718  
         H11       1.0000    0.54400   0.63000   0.49990   Biso      1.000     H          0.126044  
         H12       1.0000    0.54180   0.89160   0.06570   Biso      1.000     H          0.128733  
         H13       1.0000    0.90020   0.81140   0.94670   Biso      1.000     H          0.118684  
         H14       1.0000    0.78960   0.90130   0.87960   Biso      1.000     H          0.127535  
         H15       1.0000    0.63090   0.87000   0.16530   Biso      1.000     H          0.124888  
         H16       1.0000    0.39020   0.88810   0.09610   Biso      1.000     H          0.114774  
         H17       1.0000    0.47270   0.65170   0.17200   Biso      1.000     H          0.123599  
         H18       1.0000    0.86290   0.67530   0.49030   Biso      1.000     H          0.121835  
         H19       1.0000    0.78700   0.57750   0.54130   Biso      1.000     H          0.127573  
         H20       1.0000    0.69300   0.53410   0.41970   Biso      1.000     H          0.143724  
         H21       1.0000    0.77030   0.63320   0.37000   Biso      1.000     H          0.125485  
         H22       1.0000    0.70970   0.89910   0.22250   Biso      1.000     H          0.122372  
         H23       1.0000    0.99310   0.71820   0.80510   Biso      1.000     H          0.130047  
         H24       1.0000    0.87220   0.70980   0.10020   Biso      1.000     H          0.120356  
         H25       1.0000    0.94760   0.73560   0.15700   Biso      1.000     H          0.117466  
         H26       1.0000    0.91640   0.43430   0.89920   Biso      1.000     H          0.118441  
         H27       1.0000    0.90760   0.56900   0.92830   Biso      1.000     H          0.133593  
         H28       1.0000    0.82700   0.69320   0.79640   Biso      1.000     H          0.124582  
         H29       1.0000    0.83520   0.01400   0.82510   Biso      1.000     H          0.121448  
         H30       1.0000    0.03810   0.83150   0.74710   Biso      1.000     H          0.125188  
         H31       1.0000    0.30700   0.46590   0.58030   Biso      1.000     H          0.143724  
         H32       1.0000    0.17300   0.30680   0.20360   Biso      1.000     H          0.124582  
         H33       1.0000    0.96190   0.16850   0.25290   Biso      1.000     H          0.125188  
         H34       1.0000    0.00690   0.28180   0.19490   Biso      1.000     H          0.130047  
         H35       1.0000    0.45820   0.10840   0.93430   Biso      1.000     H          0.128733  
         H36       1.0000    0.37250   0.34530   0.85660   Biso      1.000     H          0.129718  
         H37       1.0000    0.34970   0.29740   0.98000   Biso      1.000     H          0.126072  
         H38       1.0000    0.28410   0.31900   0.06130   Biso      1.000     H          0.126337  
         H39       1.0000    0.09980   0.18860   0.05330   Biso      1.000     H          0.118684  
         H40       1.0000    0.16340   0.16300   0.97190   Biso      1.000     H          0.129307  
         H41       1.0000    0.40830   0.55810   0.39630   Biso      1.000     H          0.12127   
         H42       1.0000    0.35380   0.64000   0.32610   Biso      1.000     H          0.123213  
         H43       1.0000    0.09370   0.68060   0.40110   Biso      1.000     H          0.11639   
         H44       1.0000    0.14950   0.60200   0.47270   Biso      1.000     H          0.122505  
         H45       1.0000    0.16550   0.44160   0.23130   Biso      1.000     H          0.129455  
         H46       1.0000    0.39650   0.63620   0.48790   Biso      1.000     H          0.125591  
         H47       1.0000    0.21040   0.09870   0.12040   Biso      1.000     H          0.127535  
         H48       1.0000    0.16480   0.98600   0.17490   Biso      1.000     H          0.121448  
         H49       1.0000    0.60980   0.11190   0.90390   Biso      1.000     H          0.114774  
         H50       1.0000    0.52730   0.34830   0.82800   Biso      1.000     H          0.123599  
         H51       1.0000    0.13710   0.32470   0.50970   Biso      1.000     H          0.121835  
         H52       1.0000    0.21300   0.42250   0.45870   Biso      1.000     H          0.127574  
         H53       1.0000    0.83450   0.55840   0.76870   Biso      1.000     H          0.129454  
         H54       1.0000    0.22970   0.36680   0.63000   Biso      1.000     H          0.125485  
         H55       1.0000    0.36910   0.13000   0.83470   Biso      1.000     H          0.124889  
         H56       1.0000    0.12780   0.29020   0.89980   Biso      1.000     H          0.120353  
         H57       1.0000    0.05240   0.26440   0.84300   Biso      1.000     H          0.117468  
         H58       1.0000    0.08360   0.56570   0.10080   Biso      1.000     H          0.118443  
         H59       1.0000    0.09240   0.43100   0.07170   Biso      1.000     H          0.133592  
         H60       1.0000    0.45600   0.37000   0.50010   Biso      1.000     H          0.126044  
         N1        1.0000    0.32210   0.51160   0.48270   Biso      1.000     N          -0.133842           
         N2        1.0000    0.30300   0.22100   0.91280   Biso      1.000     N          -0.163916           
         N3        1.0000    0.86100   0.72970   0.88180   Biso      1.000     N          -0.179519           
         N4        1.0000    0.67790   0.48840   0.51730   Biso      1.000     N          -0.133842           
         N5        1.0000    0.13900   0.27030   0.11820   Biso      1.000     N          -0.17952  
         N6        1.0000    0.69700   0.77900   0.08720   Biso      1.000     N          -0.163916           
         Nd1       1.0000    0.86609   0.22797   0.79243   Biso      1.000     Nd          2.040429  
         Nd2       1.0000    0.04501   0.14412   0.67448   Biso      1.000     Nd          2.005835  
         Nd3       1.0000    0.13391   0.77203   0.20757   Biso      1.000     Nd          2.040429  
         Nd4       1.0000    0.95499   0.85588   0.32552   Biso      1.000     Nd          2.005835  
         O1        1.0000    0.70400   0.30380   0.83560   Biso      1.000     O          -0.601439           
         O2        1.0000    0.74370   0.15660   0.83750   Biso      1.000     O          -0.677706           
         O3        1.0000    0.95750   0.01220   0.29240   Biso      1.000     O          -0.6122   
         O4        1.0000    0.07220   0.90960   0.24889   Biso      1.000     O          -0.773645           
         O5        1.0000    0.13300   0.25900   0.65460   Biso      1.000     O          -0.609109           
         O6        1.0000    0.07360   0.23970   0.59170   Biso      1.000     O          -0.699193           
         O7        1.0000    0.03560   0.20960   0.76050   Biso      1.000     O          -0.733201           
         O8        1.0000    0.15850   0.10410   0.73440   Biso      1.000     O          -0.623576           
         O9        1.0000    0.11040   0.67590   0.14950   Biso      1.000     O          -0.644027           
         O10       1.0000    0.14550   0.60890   0.22640   Biso      1.000     O          -0.62697  
         O11       1.0000    0.76130   0.26460   0.72820   Biso      1.000     O          -0.616779           
         O12       1.0000    0.90280   0.26160   0.69130   Biso      1.000     O          -0.725094           
         O13       1.0000    0.29600   0.69620   0.16440   Biso      1.000     O          -0.601439           
         O14       1.0000    0.25630   0.84340   0.16250   Biso      1.000     O          -0.677706           
         O15       1.0000    0.04250   0.98780   0.70760   Biso      1.000     O          -0.6122   
         O16       1.0000    0.92780   0.09040   0.75111   Biso      1.000     O          -0.773645           
         O17       1.0000    0.86700   0.74100   0.34540   Biso      1.000     O          -0.609109           
         O18       1.0000    0.92640   0.76030   0.40830   Biso      1.000     O          -0.699193           
         O19       1.0000    0.96440   0.79040   0.23950   Biso      1.000     O          -0.733202           
         O20       1.0000    0.84150   0.89590   0.26560   Biso      1.000     O          -0.623576           
         O21       1.0000    0.88960   0.32410   0.85050   Biso      1.000     O          -0.644027           
         O22       1.0000    0.85450   0.39110   0.77360   Biso      1.000     O          -0.62697  
         O23       1.0000    0.09720   0.73840   0.30870   Biso      1.000     O          -0.725094           
         O24       1.0000    0.23870   0.73540   0.27180   Biso      1.000     O          -0.616779 