
##########################################################################
#               Crystallographic Information Format file
#               Produced by PyCifRW module
#
#  This is a CIF file.  CIF has been adopted by the International
#  Union of Crystallography as the standard for data archiving and
#  transmission.
#
#  For information on this file format, follow the CIF links at
#  http://www.iucr.org
##########################################################################

data_image0

_cell_length_a                          9.3549
_cell_length_b                          13.104
_cell_length_c                          10.883
_cell_angle_alpha                       113.08
_cell_angle_beta                        90
_cell_angle_gamma                       90
_symmetry_space_group_name_H-M          'P 1'
_symmetry_int_tables_number             1
loop_
  _symmetry_equiv_pos_as_xyz
         'x, y, z' 
loop_
  _atom_site_label
  _atom_site_occupancy
  _atom_site_fract_x
  _atom_site_fract_y
  _atom_site_fract_z
  _atom_site_thermal_displace_type
  _atom_site_B_iso_or_equiv
  _atom_site_type_symbol
  _atom_site_charge
         C1        1.0000    0.39960   0.22670   0.70180   Biso      1.000     C          0.117903  
         C2        1.0000    0.96360   0.42070   0.59450   Biso      1.000     C          0.679307  
         C3        1.0000    0.89960   0.77330   0.79820   Biso      1.000     C          0.117899  
         C4        1.0000    0.95870   0.87740   0.83910   Biso      1.000     C          -0.19300599999999998          
         C5        1.0000    0.96840   0.94270   0.97530   Biso      1.000     C          0.102951  
         C6        1.0000    0.92100   0.89620   0.06030   Biso      1.000     C          -0.193726           
         C7        1.0000    0.86470   0.79000   0.01140   Biso      1.000     C          0.10282999999999999           
         C8        1.0000    0.16800   0.48200   0.95220   Biso      1.000     C          0.607152  
         C9        1.0000    0.19250   0.59440   0.94270   Biso      1.000     C          0.07092000000000001           
         C10       1.0000    0.34060   0.64020   0.99400   Biso      1.000     C          -0.39647899999999997          
         C11       1.0000    0.46360   0.57930   0.90550   Biso      1.000     C          0.679305  
         C12       1.0000    0.45870   0.12260   0.66090   Biso      1.000     C          -0.193001           
         C13       1.0000    0.46840   0.05730   0.52470   Biso      1.000     C          0.10295   
         C14       1.0000    0.42100   0.10380   0.43970   Biso      1.000     C          -0.193723           
         C15       1.0000    0.36470   0.21000   0.48860   Biso      1.000     C          0.102834  
         C16       1.0000    0.84060   0.35980   0.50600   Biso      1.000     C          -0.396469           
         C17       1.0000    0.33200   0.48200   0.45220   Biso      1.000     C          0.5958680000000001  
         C18       1.0000    0.15940   0.64020   0.49400   Biso      1.000     C          -0.384447           
         C19       1.0000    0.03640   0.57930   0.40550   Biso      1.000     C          0.678231  
         C20       1.0000    0.10040   0.22670   0.20180   Biso      1.000     C          0.117986  
         C21       1.0000    0.04130   0.12260   0.16090   Biso      1.000     C          -0.19431700000000002          
         C22       1.0000    0.03160   0.05730   0.02470   Biso      1.000     C          0.102136  
         C23       1.0000    0.07900   0.10380   0.93970   Biso      1.000     C          -0.19539700000000002          
         C24       1.0000    0.13530   0.21000   0.98860   Biso      1.000     C          0.103822  
         C25       1.0000    0.83200   0.51800   0.04780   Biso      1.000     C          0.595859  
         C26       1.0000    0.80750   0.40560   0.05730   Biso      1.000     C          0.063777  
         C27       1.0000    0.65940   0.35980   0.00600   Biso      1.000     C          -0.384418           
         C28       1.0000    0.53640   0.42070   0.09450   Biso      1.000     C          0.67824   
         C29       1.0000    0.60040   0.77330   0.29820   Biso      1.000     C          0.117979  
         C30       1.0000    0.54130   0.87740   0.33910   Biso      1.000     C          -0.19431500000000002          
         C31       1.0000    0.53160   0.94270   0.47530   Biso      1.000     C          0.102137  
         C32       1.0000    0.30750   0.59440   0.44270   Biso      1.000     C          0.063777  
         C33       1.0000    0.57900   0.89620   0.56030   Biso      1.000     C          -0.195392           
         C34       1.0000    0.69250   0.40560   0.55730   Biso      1.000     C          0.07091900000000001           
         C35       1.0000    0.63530   0.79000   0.51140   Biso      1.000     C          0.103816  
         C36       1.0000    0.66800   0.51800   0.54780   Biso      1.000     C          0.607139  
         H1        1.0000    0.62030   0.35300   0.50300   Biso      1.000     H          0.08996799999999999           
         H2        1.0000    0.84410   0.28270   0.49500   Biso      1.000     H          0.147544  
         H3        1.0000    0.85380   0.36170   0.41860   Biso      1.000     H          0.16305899999999998           
         H4        1.0000    0.89370   0.73110   0.70690   Biso      1.000     H          0.101359  
         H5        1.0000    0.99180   0.90400   0.77660   Biso      1.000     H          0.13030899999999998           
         H6        1.0000    0.92650   0.93640   0.15200   Biso      1.000     H          0.128242  
         H7        1.0000    0.83570   0.75980   0.07180   Biso      1.000     H          0.10154500000000001           
         H8        1.0000    0.12030   0.64700   0.99700   Biso      1.000     H          0.089976  
         H9        1.0000    0.34410   0.71730   0.00500   Biso      1.000     H          0.147547  
         H10       1.0000    0.35380   0.63830   0.08140   Biso      1.000     H          0.16305999999999998           
         H11       1.0000    0.39370   0.26890   0.79310   Biso      1.000     H          0.10135599999999999           
         H12       1.0000    0.49180   0.09600   0.72340   Biso      1.000     H          0.130304  
         H13       1.0000    0.33570   0.24020   0.42820   Biso      1.000     H          0.101543  
         H14       1.0000    0.66430   0.75980   0.57180   Biso      1.000     H          0.099373  
         H15       1.0000    0.15590   0.71730   0.50500   Biso      1.000     H          0.14774   
         H16       1.0000    0.57350   0.93640   0.65200   Biso      1.000     H          0.126958  
         H17       1.0000    0.50820   0.90400   0.27660   Biso      1.000     H          0.12928900000000002           
         H18       1.0000    0.60630   0.73110   0.20690   Biso      1.000     H          0.09957   
         H19       1.0000    0.64620   0.36170   0.91860   Biso      1.000     H          0.169138  
         H20       1.0000    0.37970   0.64700   0.49700   Biso      1.000     H          0.092324  
         H21       1.0000    0.87970   0.35300   0.00300   Biso      1.000     H          0.092309  
         H22       1.0000    0.65590   0.28270   0.99500   Biso      1.000     H          0.147713  
         H23       1.0000    0.07350   0.06360   0.84800   Biso      1.000     H          0.126959  
         H24       1.0000    0.00820   0.09600   0.22340   Biso      1.000     H          0.12929000000000002           
         H25       1.0000    0.10630   0.26890   0.29310   Biso      1.000     H          0.09956799999999999           
         H26       1.0000    0.14620   0.63830   0.58140   Biso      1.000     H          0.169165  
         H27       1.0000    0.16430   0.24020   0.92820   Biso      1.000     H          0.099372  
         H28       1.0000    0.42650   0.06360   0.34800   Biso      1.000     H          0.128237  
         N1        1.0000    0.85060   0.72910   0.88060   Biso      1.000     N          -0.180597           
         N2        1.0000    0.35060   0.27090   0.61940   Biso      1.000     N          -0.18060299999999999          
         N3        1.0000    0.14940   0.27090   0.11940   Biso      1.000     N          -0.199561           
         N4        1.0000    0.64940   0.72910   0.38060   Biso      1.000     N          -0.19956  
         Ni1       1.0000    0.76161   0.57437   0.80666   Biso      1.000     Ni          0.892784  
         Ni2       1.0000    0.73839   0.57437   0.30666   Biso      1.000     Ni          0.9033950000000001  
         Ni3       1.0000    0.23839   0.42563   0.19334   Biso      1.000     Ni          0.903424  
         Ni4       1.0000    0.26161   0.42563   0.69334   Biso      1.000     Ni          0.8927889999999999  
         O1        1.0000    0.81910   0.41460   0.19330   Biso      1.000     O          -0.337473           
         O2        1.0000    0.85450   0.51380   0.93260   Biso      1.000     O          -0.526701           
         O3        1.0000    0.83100   0.60380   0.15380   Biso      1.000     O          -0.53128  
         O4        1.0000    0.91560   0.62550   0.42880   Biso      1.000     O          -0.5537850000000001           
         O5        1.0000    0.05760   0.48410   0.31440   Biso      1.000     O          -0.509772           
         O6        1.0000    0.31910   0.58540   0.30670   Biso      1.000     O          -0.337416           
         O7        1.0000    0.35450   0.48620   0.56740   Biso      1.000     O          -0.526679           
         O8        1.0000    0.33100   0.39620   0.34620   Biso      1.000     O          -0.531254           
         O9        1.0000    0.58440   0.62550   0.92880   Biso      1.000     O          -0.535871           
         O10       1.0000    0.44240   0.48410   0.81440   Biso      1.000     O          -0.502567           
         O11       1.0000    0.18090   0.58540   0.80670   Biso      1.000     O          -0.385642           
         O12       1.0000    0.14550   0.48620   0.06740   Biso      1.000     O          -0.517806           
         O13       1.0000    0.16900   0.39620   0.84620   Biso      1.000     O          -0.527142           
         O14       1.0000    0.08440   0.37450   0.57120   Biso      1.000     O          -0.535867           
         O15       1.0000    0.94240   0.51590   0.68560   Biso      1.000     O          -0.5025890000000001           
         O16       1.0000    0.68090   0.41460   0.69330   Biso      1.000     O          -0.385594           
         O17       1.0000    0.64550   0.51380   0.43260   Biso      1.000     O          -0.517789           
         O18       1.0000    0.66900   0.60380   0.65380   Biso      1.000     O          -0.527161           
         O19       1.0000    0.55760   0.51590   0.18560   Biso      1.000     O          -0.509754           
         O20       1.0000    0.41560   0.37450   0.07120   Biso      1.000     O          -0.5537920000000001 