
##########################################################################
#               Crystallographic Information Format file
#               Produced by PyCifRW module
#
#  This is a CIF file.  CIF has been adopted by the International
#  Union of Crystallography as the standard for data archiving and
#  transmission.
#
#  For information on this file format, follow the CIF links at
#  http://www.iucr.org
##########################################################################

data_image0

_cell_length_a                          8.6463
_cell_length_b                          9.0805
_cell_length_c                          11.888
_cell_angle_alpha                       110.25
_cell_angle_beta                        90
_cell_angle_gamma                       90
_symmetry_space_group_name_H-M          'P 1'
_symmetry_int_tables_number             1
loop_
  _symmetry_equiv_pos_as_xyz
         'x, y, z' 
loop_
  _atom_site_label
  _atom_site_occupancy
  _atom_site_fract_x
  _atom_site_fract_y
  _atom_site_fract_z
  _atom_site_thermal_displace_type
  _atom_site_B_iso_or_equiv
  _atom_site_type_symbol
  _atom_site_charge
         C1        1.0000    0.50800   0.60900   0.42520   Biso      1.000     C          -0.137002           
         C2        1.0000    0.47500   0.81000   0.77270   Biso      1.000     C          -0.334448           
         C3        1.0000    0.53580   0.77640   0.15040   Biso      1.000     C          0.700107  
         C4        1.0000    0.54240   0.19330   0.56510   Biso      1.000     C          -0.170286           
         C5        1.0000    0.44200   0.26570   0.67870   Biso      1.000     C          -0.345541           
         C6        1.0000    0.54150   0.99720   0.34910   Biso      1.000     C          -0.153859           
         C7        1.0000    0.44250   0.89010   0.24970   Biso      1.000     C          -0.346358           
         C8        1.0000    0.05250   0.57380   0.78690   Biso      1.000     C          0.682011  
         C9        1.0000    0.05200   0.56140   0.65510   Biso      1.000     C          -0.362024           
         C10       1.0000    0.43860   0.08890   0.46160   Biso      1.000     C          -0.196184           
         C11       1.0000    0.98100   0.20500   0.35980   Biso      1.000     C          -0.159018           
         C12       1.0000    0.01200   0.37800   0.44270   Biso      1.000     C          -0.183538           
         C13       1.0000    0.00800   0.39100   0.57480   Biso      1.000     C          -0.137003           
         C14       1.0000    0.13100   0.24000   0.17200   Biso      1.000     C          0.661965  
         C15       1.0000    0.53930   0.36750   0.78090   Biso      1.000     C          0.70824   
         C16       1.0000    0.03930   0.63250   0.21910   Biso      1.000     C          0.70824   
         C17       1.0000    0.48100   0.79500   0.64020   Biso      1.000     C          -0.159018           
         C18       1.0000    0.97500   0.19000   0.22730   Biso      1.000     C          -0.334447           
         C19       1.0000    0.93860   0.91110   0.53840   Biso      1.000     C          -0.196183           
         C20       1.0000    0.55200   0.43860   0.34490   Biso      1.000     C          -0.362024           
         C21       1.0000    0.55250   0.42620   0.21310   Biso      1.000     C          0.682011  
         C22       1.0000    0.63100   0.76000   0.82800   Biso      1.000     C          0.661965  
         C23       1.0000    0.04150   0.00280   0.65090   Biso      1.000     C          -0.153859           
         C24       1.0000    0.94200   0.73430   0.32130   Biso      1.000     C          -0.345541           
         C25       1.0000    0.04240   0.80670   0.43490   Biso      1.000     C          -0.170287           
         C26       1.0000    0.03580   0.22360   0.84960   Biso      1.000     C          0.700108  
         C27       1.0000    0.94250   0.10990   0.75030   Biso      1.000     C          -0.346358           
         C28       1.0000    0.51200   0.62200   0.55730   Biso      1.000     C          -0.183539           
         H1        1.0000    0.38220   0.83110   0.61720   Biso      1.000     H          0.092388  
         H2        1.0000    0.45030   0.92050   0.82070   Biso      1.000     H          0.138353  
         H3        1.0000    0.38840   0.74460   0.78320   Biso      1.000     H          0.126221  
         H4        1.0000    0.40340   0.63470   0.40410   Biso      1.000     H          0.106187  
         H5        1.0000    0.58220   0.68430   0.41170   Biso      1.000     H          0.104053  
         H6        1.0000    0.43250   0.55210   0.57180   Biso      1.000     H          0.095213  
         H7        1.0000    0.61450   0.58740   0.57630   Biso      1.000     H          0.102158  
         H8        1.0000    0.41200   0.28700   0.21200   Biso      1.000     H          0.376696  
         H9        1.0000    0.86260   0.84470   0.56100   Biso      1.000     H          0.102519  
         H10       1.0000    0.62620   0.12920   0.58150   Biso      1.000     H          0.094802  
         H11       1.0000    0.59010   0.27780   0.54200   Biso      1.000     H          0.095619  
         H12       1.0000    0.35810   0.32920   0.66170   Biso      1.000     H          0.147335  
         H13       1.0000    0.39400   0.18070   0.70110   Biso      1.000     H          0.153462  
         H14       1.0000    0.59570   0.07330   0.32020   Biso      1.000     H          0.094712  
         H15       1.0000    0.62040   0.93450   0.37270   Biso      1.000     H          0.090315  
         H16       1.0000    0.37210   0.83030   0.28370   Biso      1.000     H          0.132731  
         H17       1.0000    0.37800   0.95470   0.21590   Biso      1.000     H          0.14649   
         H18       1.0000    0.15560   0.58820   0.63240   Biso      1.000     H          0.141771  
         H19       1.0000    0.97630   0.63650   0.64320   Biso      1.000     H          0.13395   
         H20       1.0000    0.36260   0.15530   0.43900   Biso      1.000     H          0.102519  
         H21       1.0000    0.38090   0.01300   0.48860   Biso      1.000     H          0.095463  
         H22       1.0000    0.06460   0.13670   0.37130   Biso      1.000     H          0.097136  
         H23       1.0000    0.88220   0.16890   0.38280   Biso      1.000     H          0.092388  
         H24       1.0000    0.11450   0.41260   0.42370   Biso      1.000     H          0.102158  
         H25       1.0000    0.93250   0.44790   0.42820   Biso      1.000     H          0.095213  
         H26       1.0000    0.08220   0.31570   0.58830   Biso      1.000     H          0.104053  
         H27       1.0000    0.47630   0.36350   0.35680   Biso      1.000     H          0.13395   
         H28       1.0000    0.65560   0.41180   0.36760   Biso      1.000     H          0.141771  
         H29       1.0000    0.87800   0.04530   0.78410   Biso      1.000     H          0.14649   
         H30       1.0000    0.87210   0.16970   0.71630   Biso      1.000     H          0.132731  
         H31       1.0000    0.12040   0.06550   0.62730   Biso      1.000     H          0.090315  
         H32       1.0000    0.09570   0.92670   0.67980   Biso      1.000     H          0.094712  
         H33       1.0000    0.56460   0.86330   0.62870   Biso      1.000     H          0.097136  
         H34       1.0000    0.89400   0.81930   0.29890   Biso      1.000     H          0.153462  
         H35       1.0000    0.09010   0.72220   0.45800   Biso      1.000     H          0.095618  
         H36       1.0000    0.12620   0.87080   0.41850   Biso      1.000     H          0.094802  
         H37       1.0000    0.91200   0.71300   0.78800   Biso      1.000     H          0.376696  
         H38       1.0000    0.95030   0.07950   0.17930   Biso      1.000     H          0.138353  
         H39       1.0000    0.88840   0.25540   0.21680   Biso      1.000     H          0.126221  
         H40       1.0000    0.90340   0.36530   0.59590   Biso      1.000     H          0.106187  
         H41       1.0000    0.85810   0.67080   0.33830   Biso      1.000     H          0.147335  
         H42       1.0000    0.88090   0.98700   0.51140   Biso      1.000     H          0.095463  
         Nd1       1.0000    0.74888   0.52559   0.98773   Biso      1.000     Nd          2.13598   
         Nd2       1.0000    0.24888   0.47441   0.01227   Biso      1.000     Nd          2.13598   
         O1        1.0000    0.67010   0.47860   0.17670   Biso      1.000     O          -0.638777           
         O2        1.0000    0.17870   0.60030   0.22440   Biso      1.000     O          -0.618035           
         O3        1.0000    0.17590   0.20230   0.86790   Biso      1.000     O          -0.600528           
         O4        1.0000    0.61640   0.73200   0.91830   Biso      1.000     O          -0.57203  
         O5        1.0000    0.43830   0.36760   0.15030   Biso      1.000     O          -0.543468           
         O6        1.0000    0.96960   0.57670   0.11470   Biso      1.000     O          -0.790977           
         O7        1.0000    0.96930   0.35420   0.91610   Biso      1.000     O          -0.793524           
         O8        1.0000    0.26100   0.23490   0.23100   Biso      1.000     O          -0.610278           
         O9        1.0000    0.17010   0.52140   0.82330   Biso      1.000     O          -0.638777           
         O10       1.0000    0.67870   0.39970   0.77560   Biso      1.000     O          -0.618035           
         O11       1.0000    0.67590   0.79770   0.13210   Biso      1.000     O          -0.600527           
         O12       1.0000    0.11640   0.26800   0.08170   Biso      1.000     O          -0.572029           
         O13       1.0000    0.93830   0.63240   0.84970   Biso      1.000     O          -0.543468           
         O14       1.0000    0.46960   0.42330   0.88530   Biso      1.000     O          -0.790977           
         O15       1.0000    0.46930   0.64580   0.08390   Biso      1.000     O          -0.793523           
         O16       1.0000    0.76100   0.76510   0.76900   Biso      1.000     O          -0.610278 