
##########################################################################
#               Crystallographic Information Format file
#               Produced by PyCifRW module
#
#  This is a CIF file.  CIF has been adopted by the International
#  Union of Crystallography as the standard for data archiving and
#  transmission.
#
#  For information on this file format, follow the CIF links at
#  http://www.iucr.org
##########################################################################

data_image0

_cell_length_a                          11.3918
_cell_length_b                          11.4299
_cell_length_c                          26.998
_cell_angle_alpha                       90
_cell_angle_beta                        90
_cell_angle_gamma                       94.283
_symmetry_space_group_name_H-M          'P 1'
_symmetry_int_tables_number             1
loop_
  _symmetry_equiv_pos_as_xyz
         'x, y, z' 
loop_
  _atom_site_label
  _atom_site_occupancy
  _atom_site_fract_x
  _atom_site_fract_y
  _atom_site_fract_z
  _atom_site_thermal_displace_type
  _atom_site_B_iso_or_equiv
  _atom_site_type_symbol
  _atom_site_charge
         C1        1.0000    0.06940   0.65410   0.02310   Biso      1.000     C          -0.15145799999999998          
         C2        1.0000    0.88420   0.74850   0.51902   Biso      1.000     C          0.651483  
         C3        1.0000    0.90610   0.05060   0.39630   Biso      1.000     C          0.6359899999999999  
         C4        1.0000    0.86370   0.04810   0.25650   Biso      1.000     C          -0.154608           
         C5        1.0000    0.90590   0.08010   0.30360   Biso      1.000     C          -0.10581800000000001          
         C6        1.0000    0.86800   0.00990   0.34525   Biso      1.000     C          -0.032665           
         C7        1.0000    0.80500   0.90750   0.33790   Biso      1.000     C          -0.10433599999999998          
         C8        1.0000    0.75900   0.87490   0.29160   Biso      1.000     C          -0.158849           
         C9        1.0000    0.79690   0.94770   0.24870   Biso      1.000     C          0.07080299999999999           
         C10       1.0000    0.69680   0.96920   0.11548   Biso      1.000     C          -0.073992           
         C11       1.0000    0.72680   0.99880   0.16394   Biso      1.000     C          -0.15119200000000002          
         C12       1.0000    0.76180   0.91510   0.19732   Biso      1.000     C          0.086624  
         C13       1.0000    0.76500   0.80090   0.18110   Biso      1.000     C          -0.156635           
         C14       1.0000    0.73520   0.77080   0.13265   Biso      1.000     C          -0.095969           
         C15       1.0000    0.70060   0.85470   0.09969   Biso      1.000     C          -0.033143           
         C16       1.0000    0.67150   0.81860   0.04776   Biso      1.000     C          0.619934  
         C17       1.0000    0.17350   0.72320   0.01560   Biso      1.000     C          -0.100237           
         C18       1.0000    0.24100   0.12510   0.70840   Biso      1.000     C          -0.158849           
         C19       1.0000    0.05980   0.53800   0.00740   Biso      1.000     C          0.050844  
         C20       1.0000    0.15440   0.49100   0.98400   Biso      1.000     C          -0.17533900000000002          
         C21       1.0000    0.25850   0.56010   0.97650   Biso      1.000     C          -0.109169           
         C22       1.0000    0.26800   0.67620   0.99220   Biso      1.000     C          -0.029506           
         C23       1.0000    0.38420   0.74850   0.98098   Biso      1.000     C          0.651483  
         C24       1.0000    0.59390   0.94940   0.89630   Biso      1.000     C          0.6359899999999999  
         C25       1.0000    0.63630   0.95190   0.75650   Biso      1.000     C          -0.154608           
         C26       1.0000    0.59410   0.91990   0.80360   Biso      1.000     C          -0.10581800000000001          
         C27       1.0000    0.63200   0.99010   0.84525   Biso      1.000     C          -0.032665           
         C28       1.0000    0.69500   0.09250   0.83790   Biso      1.000     C          -0.10433599999999998          
         C29       1.0000    0.74100   0.12510   0.79160   Biso      1.000     C          -0.158849           
         C30       1.0000    0.70310   0.05230   0.74870   Biso      1.000     C          0.07080299999999999           
         C31       1.0000    0.76800   0.67620   0.50780   Biso      1.000     C          -0.029507           
         C32       1.0000    0.80320   0.03080   0.61548   Biso      1.000     C          -0.073992           
         C33       1.0000    0.75850   0.56010   0.52350   Biso      1.000     C          -0.109171           
         C34       1.0000    0.55980   0.53800   0.49260   Biso      1.000     C          0.050843  
         C35       1.0000    0.27320   0.00120   0.83606   Biso      1.000     C          -0.151194           
         C36       1.0000    0.23820   0.08490   0.80268   Biso      1.000     C          0.086624  
         C37       1.0000    0.23500   0.19910   0.81890   Biso      1.000     C          -0.156636           
         C38       1.0000    0.26480   0.22920   0.86735   Biso      1.000     C          -0.095969           
         C39       1.0000    0.29940   0.14530   0.90031   Biso      1.000     C          -0.033147           
         C40       1.0000    0.32850   0.18140   0.95224   Biso      1.000     C          0.619934  
         C41       1.0000    0.82650   0.27680   0.98440   Biso      1.000     C          -0.100238           
         C42       1.0000    0.93060   0.34590   0.97690   Biso      1.000     C          -0.15145699999999998          
         C43       1.0000    0.94020   0.46200   0.99260   Biso      1.000     C          0.050843  
         C44       1.0000    0.84560   0.50900   0.01600   Biso      1.000     C          -0.17533900000000002          
         C45       1.0000    0.74150   0.43990   0.02350   Biso      1.000     C          -0.109169           
         C46       1.0000    0.73200   0.32380   0.00780   Biso      1.000     C          -0.029506           
         C47       1.0000    0.61580   0.25150   0.01902   Biso      1.000     C          0.651483  
         C48       1.0000    0.40610   0.05060   0.10370   Biso      1.000     C          0.6359899999999999  
         C49       1.0000    0.36370   0.04810   0.24350   Biso      1.000     C          -0.154608           
         C50       1.0000    0.40590   0.08010   0.19640   Biso      1.000     C          -0.10581800000000001          
         C51       1.0000    0.36800   0.00990   0.15475   Biso      1.000     C          -0.032665           
         C52       1.0000    0.30500   0.90750   0.16210   Biso      1.000     C          -0.10433599999999998          
         C53       1.0000    0.25900   0.87490   0.20840   Biso      1.000     C          -0.158849           
         C54       1.0000    0.29690   0.94770   0.25130   Biso      1.000     C          0.07080299999999999           
         C55       1.0000    0.19680   0.96920   0.38452   Biso      1.000     C          -0.073992           
         C56       1.0000    0.22680   0.99880   0.33606   Biso      1.000     C          -0.15119200000000002          
         C57       1.0000    0.26180   0.91510   0.30268   Biso      1.000     C          0.086624  
         C58       1.0000    0.26500   0.80090   0.31890   Biso      1.000     C          -0.156635           
         C59       1.0000    0.23520   0.77080   0.36735   Biso      1.000     C          -0.095969           
         C60       1.0000    0.20060   0.85470   0.40031   Biso      1.000     C          -0.033142000000000005         
         C61       1.0000    0.17150   0.81860   0.45224   Biso      1.000     C          0.619934  
         C62       1.0000    0.67350   0.72320   0.48440   Biso      1.000     C          -0.100237           
         C63       1.0000    0.56940   0.65410   0.47690   Biso      1.000     C          -0.15145699999999998          
         C64       1.0000    0.65440   0.49100   0.51600   Biso      1.000     C          -0.17533800000000002          
         C65       1.0000    0.77320   0.00120   0.66394   Biso      1.000     C          -0.15119200000000002          
         C66       1.0000    0.73820   0.08490   0.69732   Biso      1.000     C          0.086624  
         C67       1.0000    0.73500   0.19910   0.68110   Biso      1.000     C          -0.156635           
         C68       1.0000    0.09390   0.94940   0.60370   Biso      1.000     C          0.6359899999999999  
         C69       1.0000    0.13630   0.95190   0.74350   Biso      1.000     C          -0.154608           
         C70       1.0000    0.09410   0.91990   0.69640   Biso      1.000     C          -0.10581800000000001          
         C71       1.0000    0.13200   0.99010   0.65475   Biso      1.000     C          -0.032665           
         C72       1.0000    0.19500   0.09250   0.66210   Biso      1.000     C          -0.10433599999999998          
         C73       1.0000    0.30320   0.03080   0.88452   Biso      1.000     C          -0.073987           
         C74       1.0000    0.11580   0.25150   0.48098   Biso      1.000     C          0.651483  
         C75       1.0000    0.23200   0.32380   0.49220   Biso      1.000     C          -0.029508           
         C76       1.0000    0.20310   0.05230   0.75130   Biso      1.000     C          0.07080299999999999           
         C77       1.0000    0.34560   0.50900   0.48400   Biso      1.000     C          -0.17533900000000002          
         C78       1.0000    0.44020   0.46200   0.50740   Biso      1.000     C          0.050843  
         C79       1.0000    0.43060   0.34590   0.52310   Biso      1.000     C          -0.15145799999999998          
         C80       1.0000    0.32650   0.27680   0.51560   Biso      1.000     C          -0.100235           
         C81       1.0000    0.24150   0.43990   0.47650   Biso      1.000     C          -0.109169           
         C82       1.0000    0.79940   0.14530   0.59969   Biso      1.000     C          -0.033143           
         C83       1.0000    0.76480   0.22920   0.63265   Biso      1.000     C          -0.095969           
         C84       1.0000    0.82850   0.18140   0.54776   Biso      1.000     C          0.619934  
         H1        1.0000    0.72340   0.07770   0.17460   Biso      1.000     H          0.114568  
         H2        1.0000    0.78790   0.74230   0.20330   Biso      1.000     H          0.114099  
         H3        1.0000    0.73850   0.69190   0.12200   Biso      1.000     H          0.119716  
         H4        1.0000    0.18000   0.80250   0.02630   Biso      1.000     H          0.120558  
         H5        1.0000    0.00470   0.68620   0.03910   Biso      1.000     H          0.11285799999999999           
         H6        1.0000    0.14790   0.41170   0.97330   Biso      1.000     H          0.106353  
         H7        1.0000    0.32310   0.52800   0.96050   Biso      1.000     H          0.120511  
         H8        1.0000    0.61730   0.90140   0.72920   Biso      1.000     H          0.11472   
         H9        1.0000    0.54100   0.85250   0.80780   Biso      1.000     H          0.118881  
         H10       1.0000    0.79480   0.19210   0.78790   Biso      1.000     H          0.121181  
         H11       1.0000    0.67370   0.02760   0.09320   Biso      1.000     H          0.124207  
         H12       1.0000    0.77660   0.92230   0.67460   Biso      1.000     H          0.114568  
         H13       1.0000    0.71210   0.25770   0.70330   Biso      1.000     H          0.114099  
         H14       1.0000    0.76150   0.30810   0.62200   Biso      1.000     H          0.119716  
         H15       1.0000    0.32000   0.19750   0.52630   Biso      1.000     H          0.120558  
         H16       1.0000    0.49530   0.31380   0.53910   Biso      1.000     H          0.11285799999999999           
         H17       1.0000    0.35210   0.58830   0.47330   Biso      1.000     H          0.106353  
         H18       1.0000    0.17690   0.47200   0.46050   Biso      1.000     H          0.120511  
         H19       1.0000    0.70890   0.14440   0.86510   Biso      1.000     H          0.117932  
         H20       1.0000    0.82630   0.97240   0.59320   Biso      1.000     H          0.124207  
         H21       1.0000    0.79110   0.85560   0.36510   Biso      1.000     H          0.117932  
         H22       1.0000    0.95900   0.14750   0.30780   Biso      1.000     H          0.118881  
         H23       1.0000    0.11730   0.90140   0.77080   Biso      1.000     H          0.11472   
         H24       1.0000    0.04100   0.85250   0.69220   Biso      1.000     H          0.11888   
         H25       1.0000    0.20890   0.14440   0.63490   Biso      1.000     H          0.117932  
         H26       1.0000    0.29480   0.19210   0.71210   Biso      1.000     H          0.121181  
         H27       1.0000    0.32630   0.97240   0.90680   Biso      1.000     H          0.124207  
         H28       1.0000    0.27660   0.92230   0.82540   Biso      1.000     H          0.114568  
         H29       1.0000    0.21210   0.25770   0.79670   Biso      1.000     H          0.114099  
         H30       1.0000    0.26150   0.30810   0.87800   Biso      1.000     H          0.119716  
         H31       1.0000    0.82000   0.19750   0.97370   Biso      1.000     H          0.120558  
         H32       1.0000    0.99530   0.31380   0.96090   Biso      1.000     H          0.11285799999999999           
         H33       1.0000    0.85210   0.58830   0.02670   Biso      1.000     H          0.106353  
         H34       1.0000    0.70520   0.80790   0.28790   Biso      1.000     H          0.121182  
         H35       1.0000    0.67690   0.47200   0.03950   Biso      1.000     H          0.120511  
         H36       1.0000    0.45900   0.14750   0.19220   Biso      1.000     H          0.118881  
         H37       1.0000    0.29110   0.85560   0.13490   Biso      1.000     H          0.117932  
         H38       1.0000    0.20520   0.80790   0.21210   Biso      1.000     H          0.121181  
         H39       1.0000    0.17370   0.02760   0.40680   Biso      1.000     H          0.124207  
         H40       1.0000    0.22340   0.07770   0.32540   Biso      1.000     H          0.114568  
         H41       1.0000    0.28790   0.74230   0.29670   Biso      1.000     H          0.114099  
         H42       1.0000    0.23850   0.69190   0.37800   Biso      1.000     H          0.119716  
         H43       1.0000    0.68000   0.80250   0.47370   Biso      1.000     H          0.120558  
         H44       1.0000    0.64790   0.41170   0.52670   Biso      1.000     H          0.106353  
         H45       1.0000    0.82310   0.52800   0.53950   Biso      1.000     H          0.120511  
         H46       1.0000    0.88270   0.09860   0.22920   Biso      1.000     H          0.114719  
         H47       1.0000    0.38270   0.09860   0.27080   Biso      1.000     H          0.114719  
         H48       1.0000    0.50470   0.68620   0.46090   Biso      1.000     H          0.11285799999999999           
         Mg1       1.0000    0.86026   0.24997   0.46172   Biso      1.000     Mg          1.437482  
         Mg2       1.0000    0.50000   0.00000   0.00000   Biso      1.000     Mg          1.41402   
         Mg3       1.0000    0.00000   0.00000   0.50000   Biso      1.000     Mg          1.41402   
         Mg4       1.0000    0.36026   0.24997   0.03828   Biso      1.000     Mg          1.437482  
         Mg5       1.0000    0.13974   0.75003   0.53828   Biso      1.000     Mg          1.437482  
         Mg6       1.0000    0.63974   0.75003   0.96172   Biso      1.000     Mg          1.437482  
         O1        1.0000    0.52665   0.30904   0.02413   Biso      1.000     O          -0.695918           
         O2        1.0000    0.07700   0.84190   0.59740   Biso      1.000     O          -0.7233109999999999           
         O3        1.0000    0.36686   0.10967   0.98295   Biso      1.000     O          -0.716329           
         O4        1.0000    0.31170   0.28399   0.96547   Biso      1.000     O          -0.634473           
         O5        1.0000    0.88248   0.85731   0.51687   Biso      1.000     O          -0.643562           
         O6        1.0000    0.43688   0.97844   0.07306   Biso      1.000     O          -0.6192439999999999           
         O7        1.0000    0.97335   0.69096   0.52413   Biso      1.000     O          -0.695918           
         O8        1.0000    0.42300   0.15810   0.09740   Biso      1.000     O          -0.7233109999999999           
         O9        1.0000    0.13314   0.89033   0.48295   Biso      1.000     O          -0.716329           
         O10       1.0000    0.18830   0.71601   0.46547   Biso      1.000     O          -0.634473           
         O11       1.0000    0.38248   0.85731   0.98313   Biso      1.000     O          -0.643562           
         O12       1.0000    0.47335   0.69096   0.97587   Biso      1.000     O          -0.695918           
         O13       1.0000    0.06312   0.02156   0.57306   Biso      1.000     O          -0.6192439999999999           
         O14       1.0000    0.92300   0.15810   0.40260   Biso      1.000     O          -0.7233109999999999           
         O15       1.0000    0.63314   0.89033   0.01705   Biso      1.000     O          -0.716329           
         O16       1.0000    0.68830   0.71601   0.03453   Biso      1.000     O          -0.634473           
         O17       1.0000    0.11752   0.14269   0.48313   Biso      1.000     O          -0.6435609999999999           
         O18       1.0000    0.56312   0.02156   0.92694   Biso      1.000     O          -0.6192439999999999           
         O19       1.0000    0.02665   0.30904   0.47587   Biso      1.000     O          -0.695918           
         O20       1.0000    0.57700   0.84190   0.90260   Biso      1.000     O          -0.7233109999999999           
         O21       1.0000    0.86686   0.10967   0.51705   Biso      1.000     O          -0.716329           
         O22       1.0000    0.81170   0.28399   0.53453   Biso      1.000     O          -0.634473           
         O23       1.0000    0.93688   0.97844   0.42694   Biso      1.000     O          -0.6192439999999999           
         O24       1.0000    0.61752   0.14269   0.01687   Biso      1.000     O          -0.6435609999999999 