
##########################################################################
#               Crystallographic Information Format file
#               Produced by PyCifRW module
#
#  This is a CIF file.  CIF has been adopted by the International
#  Union of Crystallography as the standard for data archiving and
#  transmission.
#
#  For information on this file format, follow the CIF links at
#  http://www.iucr.org
##########################################################################

data_image0

_cell_length_a                          6.2672
_cell_length_b                          8.6204
_cell_length_c                          12.936
_cell_angle_alpha                       105.314
_cell_angle_beta                        90.439
_cell_angle_gamma                       105.081
_symmetry_space_group_name_H-M          'P 1'
_symmetry_int_tables_number             1
loop_
  _symmetry_equiv_pos_as_xyz
         'x, y, z' 
loop_
  _atom_site_label
  _atom_site_occupancy
  _atom_site_fract_x
  _atom_site_fract_y
  _atom_site_fract_z
  _atom_site_thermal_displace_type
  _atom_site_B_iso_or_equiv
  _atom_site_type_symbol
  _atom_site_charge
         C1        1.0000    0.59460   0.08160   0.52130   Biso      1.000     C          0.529047  
         C2        1.0000    0.26880   0.60530   0.78170   Biso      1.000     C          0.508457  
         C3        1.0000    0.94470   0.05190   0.04560   Biso      1.000     C          0.545174  
         C4        1.0000    0.54260   0.30210   0.12840   Biso      1.000     C          0.552408  
         C5        1.0000    0.73120   0.39470   0.21830   Biso      1.000     C          0.508457  
         C6        1.0000    0.40540   0.91840   0.47870   Biso      1.000     C          0.529047  
         C7        1.0000    0.05530   0.94810   0.95440   Biso      1.000     C          0.545174  
         C8        1.0000    0.45740   0.69790   0.87160   Biso      1.000     C          0.552408  
         H1        1.0000    0.98030   0.96950   0.29530   Biso      1.000     H          0.387057  
         H2        1.0000    0.01970   0.03050   0.70470   Biso      1.000     H          0.387055  
         N1        1.0000    0.71570   0.29250   0.86860   Biso      1.000     N          0.740324  
         N2        1.0000    0.28430   0.70750   0.13140   Biso      1.000     N          0.740326  
         Nd1       1.0000    0.80913   0.66646   0.07490   Biso      1.000     Nd          2.039862  
         Nd2       1.0000    0.19087   0.33354   0.92510   Biso      1.000     Nd          2.039862  
         Nd3       1.0000    0.55756   0.02780   0.25762   Biso      1.000     Nd          1.990185  
         Nd4       1.0000    0.44244   0.97220   0.74238   Biso      1.000     Nd          1.990181  
         O1        1.0000    0.17260   0.02880   0.89650   Biso      1.000     O          -0.693025           
         O2        1.0000    0.83960   0.43310   0.92470   Biso      1.000     O          -0.526717           
         O3        1.0000    0.79940   0.16820   0.83770   Biso      1.000     O          -0.473252           
         O4        1.0000    0.68370   0.15070   0.45220   Biso      1.000     O          -0.560148           
         O5        1.0000    0.64160   0.13030   0.62050   Biso      1.000     O          -0.588166           
         O6        1.0000    0.16410   0.45980   0.77790   Biso      1.000     O          -0.53804  
         O7        1.0000    0.23470   0.68580   0.71790   Biso      1.000     O          -0.56693  
         O8        1.0000    0.49540   0.61590   0.93420   Biso      1.000     O          -0.713785           
         O9        1.0000    0.55830   0.84370   0.87450   Biso      1.000     O          -0.591288           
         O10       1.0000    0.02090   0.79610   0.94460   Biso      1.000     O          -0.582367           
         O11       1.0000    0.85870   0.89790   0.29480   Biso      1.000     O          -0.963501           
         O12       1.0000    0.50460   0.38410   0.06580   Biso      1.000     O          -0.713786           
         O13       1.0000    0.16040   0.56690   0.07530   Biso      1.000     O          -0.526716           
         O14       1.0000    0.20060   0.83180   0.16230   Biso      1.000     O          -0.473252           
         O15       1.0000    0.31630   0.84930   0.54780   Biso      1.000     O          -0.560147           
         O16       1.0000    0.35840   0.86970   0.37950   Biso      1.000     O          -0.588167           
         O17       1.0000    0.83590   0.54020   0.22210   Biso      1.000     O          -0.53804  
         O18       1.0000    0.76530   0.31420   0.28210   Biso      1.000     O          -0.56693  
         O19       1.0000    0.51000   0.26780   0.83950   Biso      1.000     O          -0.495295           
         O20       1.0000    0.44170   0.15630   0.12550   Biso      1.000     O          -0.591288           
         O21       1.0000    0.97910   0.20390   0.05540   Biso      1.000     O          -0.582367           
         O22       1.0000    0.82740   0.97120   0.10350   Biso      1.000     O          -0.693025           
         O23       1.0000    0.49000   0.73220   0.16050   Biso      1.000     O          -0.495295           
         O24       1.0000    0.14130   0.10210   0.70520   Biso      1.000     O          -0.963497 