
##########################################################################
#               Crystallographic Information Format file
#               Produced by PyCifRW module
#
#  This is a CIF file.  CIF has been adopted by the International
#  Union of Crystallography as the standard for data archiving and
#  transmission.
#
#  For information on this file format, follow the CIF links at
#  http://www.iucr.org
##########################################################################

data_image0

_cell_length_a                          7.3578
_cell_length_b                          21.9969
_cell_length_c                          20.3447
_cell_angle_alpha                       90
_cell_angle_beta                        90
_cell_angle_gamma                       90
_symmetry_space_group_name_H-M          'P 1'
_symmetry_int_tables_number             1
loop_
  _symmetry_equiv_pos_as_xyz
         'x, y, z' 
loop_
  _atom_site_label
  _atom_site_occupancy
  _atom_site_fract_x
  _atom_site_fract_y
  _atom_site_fract_z
  _atom_site_thermal_displace_type
  _atom_site_B_iso_or_equiv
  _atom_site_type_symbol
  _atom_site_charge
         C1        1.0000    0.58460   0.41884   0.10893   Biso      1.000     C          0.042611  
         C2        1.0000    0.02050   0.46150   0.87245   Biso      1.000     C          -0.145423           
         C3        1.0000    0.98950   0.43718   0.93367   Biso      1.000     C          0.066438  
         C4        1.0000    0.12490   0.40125   0.96080   Biso      1.000     C          -0.145019           
         C5        1.0000    0.28360   0.39241   0.92680   Biso      1.000     C          0.042732  
         C6        1.0000    0.81550   0.44967   0.96908   Biso      1.000     C          0.403558  
         C7        1.0000    0.68710   0.37831   0.15392   Biso      1.000     C          0.131103  
         C8        1.0000    0.59140   0.34599   0.20046   Biso      1.000     C          -0.189883           
         C9        1.0000    0.68160   0.31041   0.24434   Biso      1.000     C          0.070387  
         C10       1.0000    0.95440   0.33760   0.20340   Biso      1.000     C          0.082521  
         C11       1.0000    0.87540   0.37400   0.15530   Biso      1.000     C          -0.175118           
         C12       1.0000    0.18710   0.30365   0.34710   Biso      1.000     C          -0.074015           
         C13       1.0000    0.18490   0.45081   0.84194   Biso      1.000     C          0.090025  
         C14       1.0000    0.40390   0.02022   0.76815   Biso      1.000     C          -0.425386           
         C15       1.0000    0.97950   0.03850   0.87245   Biso      1.000     C          -0.145424           
         C16       1.0000    0.01050   0.06282   0.93367   Biso      1.000     C          0.06644   
         C17       1.0000    0.87510   0.09875   0.96080   Biso      1.000     C          -0.145025           
         C18       1.0000    0.71640   0.10759   0.92680   Biso      1.000     C          0.042727  
         C19       1.0000    0.18450   0.05033   0.96908   Biso      1.000     C          0.403565  
         C20       1.0000    0.41540   0.08116   0.10893   Biso      1.000     C          0.042606  
         C21       1.0000    0.31290   0.12169   0.15392   Biso      1.000     C          0.131109  
         C22       1.0000    0.40860   0.15401   0.20046   Biso      1.000     C          -0.189888           
         C23       1.0000    0.31840   0.18959   0.24434   Biso      1.000     C          0.070387  
         C24       1.0000    0.04560   0.16240   0.20340   Biso      1.000     C          0.08252   
         C25       1.0000    0.12460   0.12600   0.15530   Biso      1.000     C          -0.17512  
         C26       1.0000    0.81510   0.04919   0.84194   Biso      1.000     C          0.090025  
         C27       1.0000    0.81290   0.19635   0.34710   Biso      1.000     C          -0.074017           
         C28       1.0000    0.59610   0.47978   0.76815   Biso      1.000     C          -0.425403           
         C29       1.0000    0.12460   0.87400   0.34470   Biso      1.000     C          -0.175118           
         C30       1.0000    0.41540   0.91884   0.39107   Biso      1.000     C          0.042608  
         C31       1.0000    0.18450   0.94967   0.53092   Biso      1.000     C          0.403564  
         C32       1.0000    0.71640   0.89241   0.57320   Biso      1.000     C          0.042725  
         C33       1.0000    0.87510   0.90125   0.53920   Biso      1.000     C          -0.145023           
         C34       1.0000    0.01050   0.93718   0.56633   Biso      1.000     C          0.066436  
         C35       1.0000    0.97950   0.96150   0.62755   Biso      1.000     C          -0.14542  
         C36       1.0000    0.81510   0.95081   0.65806   Biso      1.000     C          0.090025  
         C37       1.0000    0.40390   0.97978   0.73185   Biso      1.000     C          -0.425217           
         C38       1.0000    0.18710   0.69635   0.15290   Biso      1.000     C          -0.074012           
         C39       1.0000    0.87540   0.62600   0.34470   Biso      1.000     C          -0.175122           
         C40       1.0000    0.95440   0.66240   0.29660   Biso      1.000     C          0.082522  
         C41       1.0000    0.81290   0.80365   0.15290   Biso      1.000     C          -0.074014           
         C42       1.0000    0.68160   0.68959   0.25566   Biso      1.000     C          0.070382  
         C43       1.0000    0.68710   0.62169   0.34608   Biso      1.000     C          0.131102  
         C44       1.0000    0.58460   0.58116   0.39107   Biso      1.000     C          0.042621  
         C45       1.0000    0.81550   0.55033   0.53092   Biso      1.000     C          0.403569  
         C46       1.0000    0.28360   0.60759   0.57320   Biso      1.000     C          0.042723  
         C47       1.0000    0.12490   0.59875   0.53920   Biso      1.000     C          -0.145024           
         C48       1.0000    0.98950   0.56282   0.56633   Biso      1.000     C          0.066434  
         C49       1.0000    0.02050   0.53850   0.62755   Biso      1.000     C          -0.14542  
         C50       1.0000    0.18490   0.54919   0.65806   Biso      1.000     C          0.090026  
         C51       1.0000    0.59610   0.52022   0.73185   Biso      1.000     C          -0.42523  
         C52       1.0000    0.31840   0.81041   0.25566   Biso      1.000     C          0.070376  
         C53       1.0000    0.04560   0.83760   0.29660   Biso      1.000     C          0.08252   
         C54       1.0000    0.59140   0.65401   0.29954   Biso      1.000     C          -0.189875           
         C55       1.0000    0.40390   0.47978   0.26815   Biso      1.000     C          -0.425407           
         C56       1.0000    0.81510   0.45081   0.34194   Biso      1.000     C          0.090023  
         C57       1.0000    0.97950   0.46150   0.37245   Biso      1.000     C          -0.145417           
         C58       1.0000    0.87510   0.59875   0.03920   Biso      1.000     C          -0.145024           
         C59       1.0000    0.71640   0.60759   0.07320   Biso      1.000     C          0.042732  
         C60       1.0000    0.18450   0.55033   0.03092   Biso      1.000     C          0.403565  
         C61       1.0000    0.41540   0.58116   0.89107   Biso      1.000     C          0.042595  
         C62       1.0000    0.31290   0.62169   0.84608   Biso      1.000     C          0.131112  
         C63       1.0000    0.40860   0.65401   0.79954   Biso      1.000     C          -0.189888           
         C64       1.0000    0.31840   0.68959   0.75566   Biso      1.000     C          0.070384  
         C65       1.0000    0.04560   0.66240   0.79660   Biso      1.000     C          0.082522  
         C66       1.0000    0.12460   0.62600   0.84470   Biso      1.000     C          -0.175115           
         C67       1.0000    0.81290   0.69635   0.65290   Biso      1.000     C          -0.073997           
         C68       1.0000    0.59610   0.97978   0.23185   Biso      1.000     C          -0.425411           
         C69       1.0000    0.01050   0.56282   0.06633   Biso      1.000     C          0.066427  
         C70       1.0000    0.18490   0.95081   0.15806   Biso      1.000     C          0.090022  
         C71       1.0000    0.98950   0.93718   0.06633   Biso      1.000     C          0.066427  
         C72       1.0000    0.12490   0.90125   0.03920   Biso      1.000     C          -0.145028           
         C73       1.0000    0.28360   0.89241   0.07320   Biso      1.000     C          0.042726  
         C74       1.0000    0.81550   0.94967   0.03092   Biso      1.000     C          0.403574  
         C75       1.0000    0.58460   0.91884   0.89107   Biso      1.000     C          0.042588  
         C76       1.0000    0.68710   0.87831   0.84608   Biso      1.000     C          0.131118  
         C77       1.0000    0.59140   0.84599   0.79954   Biso      1.000     C          -0.189891           
         C78       1.0000    0.68160   0.81041   0.75566   Biso      1.000     C          0.070384  
         C79       1.0000    0.95440   0.83760   0.79660   Biso      1.000     C          0.082522  
         C80       1.0000    0.87540   0.87400   0.84470   Biso      1.000     C          -0.175117           
         C81       1.0000    0.18710   0.80365   0.65290   Biso      1.000     C          -0.073999           
         C82       1.0000    0.02050   0.96150   0.12755   Biso      1.000     C          -0.145413           
         C83       1.0000    0.97950   0.53850   0.12755   Biso      1.000     C          -0.145416           
         C84       1.0000    0.81510   0.54919   0.15806   Biso      1.000     C          0.090024  
         C85       1.0000    0.40390   0.52022   0.23185   Biso      1.000     C          -0.425244           
         C86       1.0000    0.01050   0.43718   0.43367   Biso      1.000     C          0.066426  
         C87       1.0000    0.87510   0.40125   0.46080   Biso      1.000     C          -0.14503  
         C88       1.0000    0.71640   0.39241   0.42680   Biso      1.000     C          0.042724  
         C89       1.0000    0.18450   0.44967   0.46908   Biso      1.000     C          0.403578  
         C90       1.0000    0.41540   0.41884   0.60893   Biso      1.000     C          0.042603  
         C91       1.0000    0.31290   0.37831   0.65392   Biso      1.000     C          0.131114  
         C92       1.0000    0.40860   0.34599   0.70046   Biso      1.000     C          -0.189887           
         C93       1.0000    0.31840   0.31041   0.74434   Biso      1.000     C          0.070388  
         C94       1.0000    0.04560   0.33760   0.70340   Biso      1.000     C          0.082524  
         C95       1.0000    0.12460   0.37400   0.65530   Biso      1.000     C          -0.17512  
         C96       1.0000    0.81290   0.30365   0.84710   Biso      1.000     C          -0.073993           
         C97       1.0000    0.59610   0.02022   0.26815   Biso      1.000     C          -0.425232           
         C98       1.0000    0.18490   0.04919   0.34194   Biso      1.000     C          0.090023  
         C99       1.0000    0.02050   0.03850   0.37245   Biso      1.000     C          -0.145417           
         C100      1.0000    0.98950   0.06282   0.43367   Biso      1.000     C          0.066428  
         C101      1.0000    0.12490   0.09875   0.46080   Biso      1.000     C          -0.145029           
         C102      1.0000    0.28360   0.10759   0.42680   Biso      1.000     C          0.042728  
         C103      1.0000    0.81550   0.05033   0.46908   Biso      1.000     C          0.403571  
         C104      1.0000    0.58460   0.08116   0.60893   Biso      1.000     C          0.042592  
         C105      1.0000    0.68710   0.12169   0.65392   Biso      1.000     C          0.131116  
         C106      1.0000    0.59140   0.15401   0.70046   Biso      1.000     C          -0.189889           
         C107      1.0000    0.68160   0.18959   0.74434   Biso      1.000     C          0.070383  
         C108      1.0000    0.95440   0.16240   0.70340   Biso      1.000     C          0.082522  
         C109      1.0000    0.87540   0.12600   0.65530   Biso      1.000     C          -0.175116           
         C110      1.0000    0.18710   0.19635   0.84710   Biso      1.000     C          -0.073995           
         C111      1.0000    0.31290   0.87831   0.34608   Biso      1.000     C          0.131107  
         C112      1.0000    0.40860   0.84599   0.29954   Biso      1.000     C          -0.189875           
         Cu1       1.0000    0.57112   0.58738   0.67419   Biso      1.000     Cu          0.467672  
         Cu2       1.0000    0.00000   0.25000   0.82000   Biso      1.000     Cu          0.147243  
         Cu3       1.0000    0.00000   0.75000   0.68000   Biso      1.000     Cu          0.147245  
         Cu4       1.0000    0.00000   0.25000   0.32000   Biso      1.000     Cu          0.147225  
         Cu5       1.0000    0.00000   0.75000   0.18000   Biso      1.000     Cu          0.147229  
         Cu6       1.0000    0.50000   0.00000   0.00000   Biso      1.000     Cu          0.665924  
         Cu7       1.0000    0.50000   0.00000   0.50000   Biso      1.000     Cu          0.665931  
         Cu8       1.0000    0.50000   0.50000   0.50000   Biso      1.000     Cu          0.665979  
         Cu9       1.0000    0.50000   0.50000   0.00000   Biso      1.000     Cu          0.66592   
         Cu10      1.0000    0.42888   0.58738   0.17419   Biso      1.000     Cu          0.467639  
         Cu11      1.0000    0.57112   0.08738   0.32581   Biso      1.000     Cu          0.467628  
         Cu12      1.0000    0.42888   0.41262   0.32581   Biso      1.000     Cu          0.467652  
         Cu13      1.0000    0.42888   0.08738   0.82581   Biso      1.000     Cu          0.467698  
         Cu14      1.0000    0.57112   0.41262   0.82581   Biso      1.000     Cu          0.4677    
         Cu15      1.0000    0.42888   0.91262   0.67419   Biso      1.000     Cu          0.46767   
         Cu16      1.0000    0.57112   0.91262   0.17419   Biso      1.000     Cu          0.467664  
         H1        1.0000    0.93180   0.48480   0.85190   Biso      1.000     H          0.133033  
         H2        1.0000    0.38640   0.78820   0.22560   Biso      1.000     H          0.091059  
         H3        1.0000    0.91940   0.83570   0.29480   Biso      1.000     H          0.091065  
         H4        1.0000    0.05350   0.89480   0.37500   Biso      1.000     H          0.131252  
         H5        1.0000    0.20490   0.46820   0.80090   Biso      1.000     H          0.095566  
         H6        1.0000    0.10820   0.38330   0.00170   Biso      1.000     H          0.134253  
         H7        1.0000    0.08060   0.83570   0.79480   Biso      1.000     H          0.091066  
         H8        1.0000    0.47090   0.43100   0.12400   Biso      1.000     H          0.116118  
         H9        1.0000    0.46530   0.34850   0.20190   Biso      1.000     H          0.124388  
         H10       1.0000    0.61360   0.28820   0.27440   Biso      1.000     H          0.091059  
         H11       1.0000    0.08060   0.33570   0.20520   Biso      1.000     H          0.091062  
         H12       1.0000    0.53470   0.84850   0.29810   Biso      1.000     H          0.12439   
         H13       1.0000    0.37290   0.36810   0.94560   Biso      1.000     H          0.100107  
         H14       1.0000    0.52910   0.93100   0.37600   Biso      1.000     H          0.11612   
         H15       1.0000    0.46530   0.65150   0.29810   Biso      1.000     H          0.124391  
         H16       1.0000    0.89180   0.88330   0.49830   Biso      1.000     H          0.134258  
         H17       1.0000    0.06820   0.98480   0.64810   Biso      1.000     H          0.133031  
         H18       1.0000    0.79510   0.96820   0.69910   Biso      1.000     H          0.095563  
         H19       1.0000    0.94650   0.60520   0.37500   Biso      1.000     H          0.131255  
         H20       1.0000    0.08060   0.66430   0.29480   Biso      1.000     H          0.091066  
         H21       1.0000    0.61360   0.71180   0.22560   Biso      1.000     H          0.091061  
         H22       1.0000    0.94650   0.39480   0.12500   Biso      1.000     H          0.131247  
         H23       1.0000    0.94650   0.89480   0.87500   Biso      1.000     H          0.131256  
         H24       1.0000    0.37290   0.63190   0.55440   Biso      1.000     H          0.100106  
         H25       1.0000    0.10820   0.61670   0.49830   Biso      1.000     H          0.134258  
         H26       1.0000    0.93180   0.51520   0.64810   Biso      1.000     H          0.133033  
         H27       1.0000    0.20490   0.53180   0.69910   Biso      1.000     H          0.095564  
         H28       1.0000    0.62710   0.86810   0.55440   Biso      1.000     H          0.100108  
         H29       1.0000    0.79510   0.03180   0.80090   Biso      1.000     H          0.095563  
         H30       1.0000    0.47090   0.56900   0.37600   Biso      1.000     H          0.116124  
         H31       1.0000    0.89180   0.11670   0.00170   Biso      1.000     H          0.134259  
         H32       1.0000    0.08060   0.16430   0.70520   Biso      1.000     H          0.091066  
         H33       1.0000    0.94650   0.10520   0.62500   Biso      1.000     H          0.131255  
         H34       1.0000    0.79510   0.53180   0.19910   Biso      1.000     H          0.095564  
         H35       1.0000    0.06820   0.51520   0.14810   Biso      1.000     H          0.133029  
         H36       1.0000    0.89180   0.61670   0.99830   Biso      1.000     H          0.134245  
         H37       1.0000    0.62710   0.63190   0.05440   Biso      1.000     H          0.1001    
         H38       1.0000    0.52910   0.56900   0.87600   Biso      1.000     H          0.116117  
         H39       1.0000    0.38640   0.71180   0.72560   Biso      1.000     H          0.091058  
         H40       1.0000    0.61360   0.21180   0.77440   Biso      1.000     H          0.091058  
         H41       1.0000    0.91940   0.66430   0.79480   Biso      1.000     H          0.091064  
         H42       1.0000    0.20490   0.96820   0.19910   Biso      1.000     H          0.095563  
         H43       1.0000    0.93180   0.98480   0.14810   Biso      1.000     H          0.13303   
         H44       1.0000    0.10820   0.88330   0.99830   Biso      1.000     H          0.13425   
         H45       1.0000    0.37290   0.86810   0.05440   Biso      1.000     H          0.100102  
         H46       1.0000    0.47090   0.93100   0.87600   Biso      1.000     H          0.116117  
         H47       1.0000    0.46530   0.84850   0.79810   Biso      1.000     H          0.124391  
         H48       1.0000    0.61360   0.78820   0.72560   Biso      1.000     H          0.091057  
         H49       1.0000    0.06820   0.01520   0.85190   Biso      1.000     H          0.133032  
         H50       1.0000    0.05350   0.60520   0.87500   Biso      1.000     H          0.131249  
         H51       1.0000    0.46530   0.15150   0.70190   Biso      1.000     H          0.124391  
         H52       1.0000    0.53470   0.65150   0.79810   Biso      1.000     H          0.124389  
         H53       1.0000    0.37290   0.13190   0.44560   Biso      1.000     H          0.100098  
         H54       1.0000    0.62710   0.13190   0.94560   Biso      1.000     H          0.10011   
         H55       1.0000    0.47090   0.06900   0.62400   Biso      1.000     H          0.116117  
         H56       1.0000    0.53470   0.15150   0.20190   Biso      1.000     H          0.12439   
         H57       1.0000    0.38640   0.21180   0.27440   Biso      1.000     H          0.091057  
         H58       1.0000    0.91940   0.16430   0.20520   Biso      1.000     H          0.091064  
         H59       1.0000    0.05350   0.10520   0.12500   Biso      1.000     H          0.131253  
         H60       1.0000    0.79510   0.46820   0.30090   Biso      1.000     H          0.095564  
         H61       1.0000    0.06820   0.48480   0.35190   Biso      1.000     H          0.133033  
         H62       1.0000    0.89180   0.38330   0.50170   Biso      1.000     H          0.13425   
         H63       1.0000    0.62710   0.36810   0.44560   Biso      1.000     H          0.100099  
         H64       1.0000    0.52910   0.06900   0.12400   Biso      1.000     H          0.11612   
         H65       1.0000    0.52910   0.43100   0.62400   Biso      1.000     H          0.116123  
         H66       1.0000    0.53470   0.34850   0.70190   Biso      1.000     H          0.124394  
         H67       1.0000    0.38640   0.28820   0.77440   Biso      1.000     H          0.09106   
         H68       1.0000    0.91940   0.33570   0.70520   Biso      1.000     H          0.091068  
         H69       1.0000    0.05350   0.39480   0.62500   Biso      1.000     H          0.131258  
         H70       1.0000    0.20490   0.03180   0.30090   Biso      1.000     H          0.095563  
         H71       1.0000    0.93180   0.01520   0.35190   Biso      1.000     H          0.133029  
         H72       1.0000    0.10820   0.11670   0.50170   Biso      1.000     H          0.134248  
         N1        1.0000    0.86130   0.19432   0.74660   Biso      1.000     N          -0.159439           
         N2        1.0000    0.62950   0.06065   0.55296   Biso      1.000     N          -0.098296           
         N3        1.0000    0.79440   0.07789   0.52535   Biso      1.000     N          -0.334082           
         N4        1.0000    0.13870   0.30568   0.74660   Biso      1.000     N          -0.159435           
         N5        1.0000    0.71150   0.34329   0.84681   Biso      1.000     N          -0.365452           
         N6        1.0000    0.28850   0.15671   0.84681   Biso      1.000     N          -0.365442           
         N7        1.0000    0.37050   0.43935   0.55296   Biso      1.000     N          -0.098301           
         N8        1.0000    0.31630   0.08300   0.36789   Biso      1.000     N          -0.199833           
         N9        1.0000    0.68370   0.58300   0.13211   Biso      1.000     N          -0.199834           
         N10       1.0000    0.71150   0.65671   0.65319   Biso      1.000     N          -0.365445           
         N11       1.0000    0.37050   0.56065   0.94704   Biso      1.000     N          -0.098297           
         N12       1.0000    0.13870   0.69432   0.75340   Biso      1.000     N          -0.159438           
         N13       1.0000    0.28850   0.84329   0.65319   Biso      1.000     N          -0.365438           
         N14       1.0000    0.31630   0.91700   0.13211   Biso      1.000     N          -0.199837           
         N15       1.0000    0.79440   0.92211   0.97465   Biso      1.000     N          -0.334094           
         N16       1.0000    0.62950   0.93935   0.94704   Biso      1.000     N          -0.098293           
         N17       1.0000    0.86130   0.80568   0.75340   Biso      1.000     N          -0.159441           
         N18       1.0000    0.20560   0.42211   0.52535   Biso      1.000     N          -0.334076           
         N19       1.0000    0.20560   0.57789   0.97465   Biso      1.000     N          -0.334074           
         N20       1.0000    0.68370   0.41700   0.36789   Biso      1.000     N          -0.199836           
         N21       1.0000    0.62950   0.56065   0.44704   Biso      1.000     N          -0.098309           
         N22       1.0000    0.13870   0.19432   0.24660   Biso      1.000     N          -0.159435           
         N23       1.0000    0.31630   0.58300   0.63211   Biso      1.000     N          -0.199839           
         N24       1.0000    0.79440   0.57789   0.47465   Biso      1.000     N          -0.334073           
         N25       1.0000    0.86130   0.69432   0.25340   Biso      1.000     N          -0.159428           
         N26       1.0000    0.28850   0.65671   0.15319   Biso      1.000     N          -0.365449           
         N27       1.0000    0.71150   0.15671   0.34681   Biso      1.000     N          -0.365439           
         N28       1.0000    0.20560   0.92211   0.47465   Biso      1.000     N          -0.334084           
         N29       1.0000    0.37050   0.93935   0.44704   Biso      1.000     N          -0.098299           
         N30       1.0000    0.13870   0.80568   0.25340   Biso      1.000     N          -0.159432           
         N31       1.0000    0.68370   0.91700   0.63211   Biso      1.000     N          -0.199839           
         N32       1.0000    0.31630   0.41700   0.86789   Biso      1.000     N          -0.199842           
         N33       1.0000    0.79440   0.42211   0.02535   Biso      1.000     N          -0.334077           
         N34       1.0000    0.62950   0.43935   0.05296   Biso      1.000     N          -0.098299           
         N35       1.0000    0.86130   0.30568   0.24660   Biso      1.000     N          -0.15943  
         N36       1.0000    0.28850   0.34329   0.34681   Biso      1.000     N          -0.365448           
         N37       1.0000    0.68370   0.08300   0.86789   Biso      1.000     N          -0.19984  
         N38       1.0000    0.20560   0.07789   0.02535   Biso      1.000     N          -0.33409  
         N39       1.0000    0.37050   0.06065   0.05296   Biso      1.000     N          -0.098302           
         N40       1.0000    0.71150   0.84329   0.15319   Biso      1.000     N          -0.365445           
         O1        1.0000    0.70420   0.01255   0.44312   Biso      1.000     O          -0.508589           
         O2        1.0000    0.29580   0.48745   0.44312   Biso      1.000     O          -0.508588           
         O3        1.0000    0.29580   0.01255   0.94312   Biso      1.000     O          -0.508609           
         O4        1.0000    0.29580   0.51255   0.05688   Biso      1.000     O          -0.508586           
         O5        1.0000    0.29580   0.98745   0.55688   Biso      1.000     O          -0.508601           
         O6        1.0000    0.70420   0.51255   0.55688   Biso      1.000     O          -0.508599           
         O7        1.0000    0.70420   0.48745   0.94312   Biso      1.000     O          -0.508595           
         O8        1.0000    0.70420   0.98745   0.05688   Biso      1.000     O          -0.508598 