
##########################################################################
#               Crystallographic Information Format file
#               Produced by PyCifRW module
#
#  This is a CIF file.  CIF has been adopted by the International
#  Union of Crystallography as the standard for data archiving and
#  transmission.
#
#  For information on this file format, follow the CIF links at
#  http://www.iucr.org
##########################################################################

data_image0

_cell_length_a                          8.68
_cell_length_b                          11.0863
_cell_length_c                          25.0903
_cell_angle_alpha                       90
_cell_angle_beta                        90
_cell_angle_gamma                       101.55
_symmetry_space_group_name_H-M          'P 1'
_symmetry_int_tables_number             1
loop_
  _symmetry_equiv_pos_as_xyz
         'x, y, z' 
loop_
  _atom_site_label
  _atom_site_occupancy
  _atom_site_fract_x
  _atom_site_fract_y
  _atom_site_fract_z
  _atom_site_thermal_displace_type
  _atom_site_B_iso_or_equiv
  _atom_site_type_symbol
  _atom_site_charge
         C1        1.0000    0.34220   0.18610   0.53420   Biso      1.000     C          0.072523  
         C2        1.0000    0.51370   0.92740   0.22210   Biso      1.000     C          0.088195  
         C3        1.0000    0.65680   0.77760   0.22230   Biso      1.000     C          0.105506  
         C4        1.0000    0.80770   0.96740   0.11320   Biso      1.000     C          0.023062  
         C5        1.0000    0.34220   0.18610   0.96580   Biso      1.000     C          0.072523  
         C6        1.0000    0.41050   0.70940   0.10020   Biso      1.000     C          -0.060923           
         C7        1.0000    0.07380   0.33310   0.19330   Biso      1.000     C          0.077434  
         C8        1.0000    0.73610   0.69570   0.30610   Biso      1.000     C          0.099574  
         C9        1.0000    0.81050   0.61510   0.27840   Biso      1.000     C          0.100356  
         C10       1.0000    0.88110   0.53860   0.35680   Biso      1.000     C          0.085428  
         C11       1.0000    0.80580   0.62040   0.38500   Biso      1.000     C          0.067006  
         C12       1.0000    0.51370   0.92740   0.27790   Biso      1.000     C          0.088194  
         C13       1.0000    0.65680   0.77760   0.27770   Biso      1.000     C          0.105514  
         C14       1.0000    0.80770   0.96740   0.38680   Biso      1.000     C          0.023061  
         C15       1.0000    0.48670   0.96140   0.40360   Biso      1.000     C          0.076377  
         C16       1.0000    0.41050   0.70940   0.39980   Biso      1.000     C          -0.060924           
         C17       1.0000    0.07380   0.33310   0.30670   Biso      1.000     C          0.077436  
         C18       1.0000    0.26390   0.30430   0.80610   Biso      1.000     C          0.099575  
         C19       1.0000    0.79840   0.29180   0.25000   Biso      1.000     C          -0.075512           
         C20       1.0000    0.17990   0.56190   0.25000   Biso      1.000     C          -0.068407           
         C21       1.0000    0.20160   0.70820   0.75000   Biso      1.000     C          -0.075511           
         C22       1.0000    0.82010   0.43810   0.75000   Biso      1.000     C          -0.068415           
         C23       1.0000    0.92620   0.66690   0.80670   Biso      1.000     C          0.077403  
         C24       1.0000    0.58950   0.29060   0.89980   Biso      1.000     C          -0.06093  
         C25       1.0000    0.80580   0.62040   0.11500   Biso      1.000     C          0.067006  
         C26       1.0000    0.65780   0.81390   0.03420   Biso      1.000     C          0.072588  
         C27       1.0000    0.19230   0.03260   0.88680   Biso      1.000     C          0.023044  
         C28       1.0000    0.34320   0.22240   0.77770   Biso      1.000     C          0.105505  
         C29       1.0000    0.48630   0.07260   0.77790   Biso      1.000     C          0.088192  
         C30       1.0000    0.19420   0.37960   0.88500   Biso      1.000     C          0.067049  
         C31       1.0000    0.11890   0.46140   0.85680   Biso      1.000     C          0.085451  
         C32       1.0000    0.18950   0.38490   0.77840   Biso      1.000     C          0.100357  
         C33       1.0000    0.51330   0.03860   0.90360   Biso      1.000     C          0.076369  
         C34       1.0000    0.88110   0.53860   0.14320   Biso      1.000     C          0.085431  
         C35       1.0000    0.48670   0.96140   0.09640   Biso      1.000     C          0.076376  
         C36       1.0000    0.73610   0.69570   0.19390   Biso      1.000     C          0.099574  
         C37       1.0000    0.26390   0.30430   0.69390   Biso      1.000     C          0.099575  
         C38       1.0000    0.18950   0.38490   0.72160   Biso      1.000     C          0.100355  
         C39       1.0000    0.81050   0.61510   0.22160   Biso      1.000     C          0.100358  
         C40       1.0000    0.19420   0.37960   0.61500   Biso      1.000     C          0.067048  
         C41       1.0000    0.48630   0.07260   0.72210   Biso      1.000     C          0.088192  
         C42       1.0000    0.34320   0.22240   0.72230   Biso      1.000     C          0.105512  
         C43       1.0000    0.11890   0.46140   0.64320   Biso      1.000     C          0.085451  
         C44       1.0000    0.51330   0.03860   0.59640   Biso      1.000     C          0.076369  
         C45       1.0000    0.65780   0.81390   0.46580   Biso      1.000     C          0.072588  
         C46       1.0000    0.58950   0.29060   0.60020   Biso      1.000     C          -0.06093  
         C47       1.0000    0.92620   0.66690   0.69330   Biso      1.000     C          0.077404  
         C48       1.0000    0.19230   0.03260   0.61320   Biso      1.000     C          0.023045  
         H1        1.0000    0.06920   0.51430   0.62390   Biso      1.000     H          0.125544  
         H2        1.0000    0.19420   0.38180   0.57800   Biso      1.000     H          0.127754  
         H3        1.0000    0.53810   0.01910   0.70420   Biso      1.000     H          0.116371  
         H4        1.0000    0.93080   0.48570   0.12390   Biso      1.000     H          0.125523  
         H5        1.0000    0.80580   0.61820   0.07800   Biso      1.000     H          0.127714  
         H6        1.0000    0.46190   0.98090   0.20420   Biso      1.000     H          0.116371  
         H7        1.0000    0.93080   0.48570   0.37610   Biso      1.000     H          0.125522  
         H8        1.0000    0.80580   0.61820   0.42200   Biso      1.000     H          0.127713  
         H9        1.0000    0.06920   0.51430   0.87610   Biso      1.000     H          0.125544  
         H10       1.0000    0.46190   0.98090   0.29580   Biso      1.000     H          0.116371  
         H11       1.0000    0.53810   0.01910   0.79580   Biso      1.000     H          0.116371  
         H12       1.0000    0.19420   0.38180   0.92200   Biso      1.000     H          0.127754  
         N1        1.0000    0.29430   0.64260   0.09010   Biso      1.000     N          -0.353765           
         N2        1.0000    0.11820   0.28010   0.15920   Biso      1.000     N          -0.47511  
         N3        1.0000    0.73460   0.70100   0.36040   Biso      1.000     N          -0.128368           
         N4        1.0000    0.88420   0.53400   0.30450   Biso      1.000     N          -0.124437           
         N5        1.0000    0.58580   0.85280   0.30610   Biso      1.000     N          -0.114759           
         N6        1.0000    0.92050   0.04610   0.38800   Biso      1.000     N          -0.463279           
         N7        1.0000    0.40760   0.03430   0.40870   Biso      1.000     N          -0.49313  
         N8        1.0000    0.31360   0.19620   0.49000   Biso      1.000     N          -0.470561           
         N9        1.0000    0.29430   0.64260   0.40990   Biso      1.000     N          -0.353762           
         N10       1.0000    0.11820   0.28010   0.34080   Biso      1.000     N          -0.4751   
         N11       1.0000    0.31000   0.79150   0.75000   Biso      1.000     N          -0.335697           
         N12       1.0000    0.88180   0.71990   0.84080   Biso      1.000     N          -0.475031           
         N13       1.0000    0.31360   0.19620   0.01000   Biso      1.000     N          -0.470562           
         N14       1.0000    0.11580   0.46600   0.80450   Biso      1.000     N          -0.12445  
         N15       1.0000    0.41420   0.14720   0.80610   Biso      1.000     N          -0.114783           
         N16       1.0000    0.07950   0.95390   0.88800   Biso      1.000     N          -0.463197           
         N17       1.0000    0.59240   0.96570   0.90870   Biso      1.000     N          -0.493016           
         N18       1.0000    0.26540   0.29900   0.86040   Biso      1.000     N          -0.128381           
         N19       1.0000    0.68640   0.80380   0.99000   Biso      1.000     N          -0.470769           
         N20       1.0000    0.70570   0.35740   0.90990   Biso      1.000     N          -0.35363  
         N21       1.0000    0.71290   0.35790   0.75000   Biso      1.000     N          -0.333527           
         N22       1.0000    0.40760   0.03430   0.09130   Biso      1.000     N          -0.493128           
         N23       1.0000    0.69000   0.20850   0.25000   Biso      1.000     N          -0.335763           
         N24       1.0000    0.58580   0.85280   0.19390   Biso      1.000     N          -0.114758           
         N25       1.0000    0.92050   0.04610   0.11200   Biso      1.000     N          -0.463281           
         N26       1.0000    0.26540   0.29900   0.63960   Biso      1.000     N          -0.128381           
         N27       1.0000    0.11580   0.46600   0.69550   Biso      1.000     N          -0.12445  
         N28       1.0000    0.41420   0.14720   0.69390   Biso      1.000     N          -0.114783           
         N29       1.0000    0.07950   0.95390   0.61200   Biso      1.000     N          -0.463198           
         N30       1.0000    0.28710   0.64210   0.25000   Biso      1.000     N          -0.333574           
         N31       1.0000    0.68640   0.80380   0.51000   Biso      1.000     N          -0.47077  
         N32       1.0000    0.70570   0.35740   0.59010   Biso      1.000     N          -0.35363  
         N33       1.0000    0.88180   0.71990   0.65920   Biso      1.000     N          -0.475027           
         N34       1.0000    0.73460   0.70100   0.13960   Biso      1.000     N          -0.128367           
         N35       1.0000    0.88420   0.53400   0.19550   Biso      1.000     N          -0.124437           
         N36       1.0000    0.59240   0.96570   0.59130   Biso      1.000     N          -0.493017           
         Ru1       1.0000    0.98845   0.42710   0.25000   Biso      1.000     Ru          0.4049    
         Ru2       1.0000    0.01155   0.57290   0.75000   Biso      1.000     Ru          0.404988  
         Ru3       1.0000    0.38786   0.16443   0.88901   Biso      1.000     Ru          0.344657  
         Ru4       1.0000    0.61214   0.83557   0.38901   Biso      1.000     Ru          0.344522  
         Ru5       1.0000    0.61214   0.83557   0.11099   Biso      1.000     Ru          0.34452   
         Ru6       1.0000    0.38786   0.16443   0.61099   Biso      1.000     Ru          0.344656  
         Yb1       1.0000    0.80809   0.85878   0.90515   Biso      1.000     Yb          1.378659  
         Yb2       1.0000    0.19191   0.14122   0.40515   Biso      1.000     Yb          1.378653  
         Yb3       1.0000    0.19191   0.14122   0.09485   Biso      1.000     Yb          1.378658  
         Yb4       1.0000    0.80809   0.85878   0.59485   Biso      1.000     Yb          1.378661 