
##########################################################################
#               Crystallographic Information Format file
#               Produced by PyCifRW module
#
#  This is a CIF file.  CIF has been adopted by the International
#  Union of Crystallography as the standard for data archiving and
#  transmission.
#
#  For information on this file format, follow the CIF links at
#  http://www.iucr.org
##########################################################################

data_image0

_cell_length_a                          12.39
_cell_length_b                          13.795
_cell_length_c                          13.83
_cell_angle_alpha                       115.769
_cell_angle_beta                        93.914
_cell_angle_gamma                       106.918
_symmetry_space_group_name_H-M          'P 1'
_symmetry_int_tables_number             1
loop_
  _symmetry_equiv_pos_as_xyz
         'x, y, z' 
loop_
  _atom_site_label
  _atom_site_occupancy
  _atom_site_fract_x
  _atom_site_fract_y
  _atom_site_fract_z
  _atom_site_thermal_displace_type
  _atom_site_B_iso_or_equiv
  _atom_site_type_symbol
  _atom_site_charge
         C1        1.0000    0.00510   0.98050   0.54250   Biso      1.000     C          0.168656  
         C2        1.0000    0.44590   0.27060   0.43910   Biso      1.000     C          0.615049  
         C3        1.0000    0.41150   0.15370   0.43470   Biso      1.000     C          0.029477999999999997          
         C4        1.0000    0.49240   0.12330   0.47690   Biso      1.000     C          -0.173349           
         C5        1.0000    0.45800   0.01750   0.47620   Biso      1.000     C          0.17055   
         C6        1.0000    0.27250   0.97250   0.39200   Biso      1.000     C          0.085797  
         C7        1.0000    0.30000   0.07740   0.39030   Biso      1.000     C          -0.147595           
         C8        1.0000    0.94110   0.86870   0.52010   Biso      1.000     C          -0.187686           
         C9        1.0000    0.46640   0.48300   0.30630   Biso      1.000     C          0.599223  
         C10       1.0000    0.64880   0.57480   0.25990   Biso      1.000     C          -0.14616300000000002          
         C11       1.0000    0.70260   0.60590   0.18580   Biso      1.000     C          0.084342  
         C12       1.0000    0.52960   0.51480   0.05570   Biso      1.000     C          0.173454  
         C13       1.0000    0.46830   0.48220   0.12430   Biso      1.000     C          -0.16936099999999998          
         C14       1.0000    0.87200   0.72130   0.58220   Biso      1.000     C          0.560723  
         C15       1.0000    0.94920   0.83720   0.60180   Biso      1.000     C          0.036186  
         C16       1.0000    0.52980   0.51340   0.22850   Biso      1.000     C          0.022193  
         C17       1.0000    0.55410   0.72940   0.56090   Biso      1.000     C          0.613482  
         C18       1.0000    0.58850   0.84630   0.56530   Biso      1.000     C          0.02812   
         C19       1.0000    0.50760   0.87670   0.52310   Biso      1.000     C          -0.173476           
         C20       1.0000    0.05890   0.13130   0.47990   Biso      1.000     C          -0.187398           
         C21       1.0000    0.99490   0.01950   0.45750   Biso      1.000     C          0.16830799999999999           
         C22       1.0000    0.91560   0.97440   0.28330   Biso      1.000     C          0.08183   
         C23       1.0000    0.97600   0.08180   0.29720   Biso      1.000     C          -0.155405           
         C24       1.0000    0.05080   0.16280   0.39820   Biso      1.000     C          0.036522000000000006          
         C25       1.0000    0.12800   0.27870   0.41780   Biso      1.000     C          0.560449  
         C26       1.0000    0.53170   0.51780   0.87570   Biso      1.000     C          -0.168485           
         C27       1.0000    0.47040   0.48520   0.94430   Biso      1.000     C          0.17368   
         C28       1.0000    0.29740   0.39410   0.81420   Biso      1.000     C          0.084538  
         C29       1.0000    0.35120   0.42520   0.74010   Biso      1.000     C          -0.146314           
         C30       1.0000    0.47020   0.48660   0.77150   Biso      1.000     C          0.022064  
         C31       1.0000    0.53360   0.51700   0.69370   Biso      1.000     C          0.59867   
         C32       1.0000    0.70000   0.92260   0.60970   Biso      1.000     C          -0.148375           
         C33       1.0000    0.72750   0.02750   0.60800   Biso      1.000     C          0.086536  
         C34       1.0000    0.54200   0.98250   0.52380   Biso      1.000     C          0.171272  
         C35       1.0000    0.02400   0.91820   0.70280   Biso      1.000     C          -0.155376           
         C36       1.0000    0.08440   0.02560   0.71670   Biso      1.000     C          0.08184   
         Eu1       1.0000    0.67393   0.52536   0.53212   Biso      1.000     Eu          1.386647  
         Eu2       1.0000    0.32607   0.47464   0.46788   Biso      1.000     Eu          1.387824  
         H1        1.0000    0.56920   0.17300   0.50550   Biso      1.000     H          0.13619   
         H2        1.0000    0.19640   0.92120   0.36200   Biso      1.000     H          0.094234  
         H3        1.0000    0.24390   0.09480   0.35980   Biso      1.000     H          0.12765   
         H4        1.0000    0.69150   0.59460   0.32800   Biso      1.000     H          0.13483900000000001           
         H5        1.0000    0.78180   0.64730   0.20660   Biso      1.000     H          0.10105599999999999           
         H6        1.0000    0.38910   0.44090   0.10150   Biso      1.000     H          0.142585  
         H7        1.0000    0.03300   0.90010   0.75960   Biso      1.000     H          0.13805599999999998           
         H8        1.0000    0.13350   0.07970   0.78500   Biso      1.000     H          0.094979  
         H9        1.0000    0.10650   0.18430   0.54930   Biso      1.000     H          0.13541199999999998           
         H10       1.0000    0.43080   0.82700   0.49450   Biso      1.000     H          0.13636199999999998           
         H11       1.0000    0.80360   0.07880   0.63800   Biso      1.000     H          0.093593  
         H12       1.0000    0.75610   0.90520   0.64020   Biso      1.000     H          0.127237  
         H13       1.0000    0.30850   0.40540   0.67200   Biso      1.000     H          0.135608  
         H14       1.0000    0.21820   0.35270   0.79340   Biso      1.000     H          0.101642  
         H15       1.0000    0.61090   0.55910   0.89850   Biso      1.000     H          0.142727  
         H16       1.0000    0.96700   0.09990   0.24040   Biso      1.000     H          0.138042  
         H17       1.0000    0.86650   0.92030   0.21500   Biso      1.000     H          0.094773  
         H18       1.0000    0.89350   0.81570   0.45070   Biso      1.000     H          0.135325  
         N1        1.0000    0.92220   0.94180   0.36060   Biso      1.000     N          -0.27362  
         N2        1.0000    0.65250   0.05830   0.56670   Biso      1.000     N          -0.252907           
         N3        1.0000    0.35590   0.42180   0.91390   Biso      1.000     N          -0.258807           
         N4        1.0000    0.64410   0.57820   0.08610   Biso      1.000     N          -0.260872           
         N5        1.0000    0.34750   0.94170   0.43330   Biso      1.000     N          -0.24991300000000002          
         N6        1.0000    0.07780   0.05820   0.63940   Biso      1.000     N          -0.273208           
         O1        1.0000    0.14070   0.29990   0.33980   Biso      1.000     O          -0.496155           
         O2        1.0000    0.55250   0.33160   0.47610   Biso      1.000     O          -0.597304           
         O3        1.0000    0.36740   0.29770   0.40940   Biso      1.000     O          -0.533257           
         O4        1.0000    0.52630   0.49490   0.39110   Biso      1.000     O          -0.6161270000000001           
         O5        1.0000    0.35950   0.45060   0.28630   Biso      1.000     O          -0.534787           
         O6        1.0000    0.85930   0.70010   0.66020   Biso      1.000     O          -0.500797           
         O7        1.0000    0.81760   0.64850   0.48460   Biso      1.000     O          -0.582874           
         O8        1.0000    0.44750   0.66840   0.52390   Biso      1.000     O          -0.598046           
         O9        1.0000    0.63260   0.70230   0.59060   Biso      1.000     O          -0.517235           
         O10       1.0000    0.47370   0.50510   0.60890   Biso      1.000     O          -0.616196           
         O11       1.0000    0.64050   0.54940   0.71370   Biso      1.000     O          -0.529516           
         O12       1.0000    0.18240   0.35150   0.51540   Biso      1.000     O          -0.587144 