
##########################################################################
#               Crystallographic Information Format file
#               Produced by PyCifRW module
#
#  This is a CIF file.  CIF has been adopted by the International
#  Union of Crystallography as the standard for data archiving and
#  transmission.
#
#  For information on this file format, follow the CIF links at
#  http://www.iucr.org
##########################################################################

data_image0

_cell_length_a                          11.6575
_cell_length_b                          10.1053
_cell_length_c                          14.879
_cell_angle_alpha                       90
_cell_angle_beta                        91.633
_cell_angle_gamma                       90
_symmetry_space_group_name_H-M          'P 1'
_symmetry_int_tables_number             1
loop_
  _symmetry_equiv_pos_as_xyz
         'x, y, z' 
loop_
  _atom_site_label
  _atom_site_occupancy
  _atom_site_fract_x
  _atom_site_fract_y
  _atom_site_fract_z
  _atom_site_thermal_displace_type
  _atom_site_B_iso_or_equiv
  _atom_site_type_symbol
  _atom_site_charge
         C1        1.0000    0.44770   0.86900   0.68600   Biso      1.000     C          0.512162  
         C2        1.0000    0.75880   0.10280   0.53220   Biso      1.000     C          0.525193  
         C3        1.0000    0.43460   0.28230   0.55270   Biso      1.000     C          0.45096400000000003           
         C4        1.0000    0.98140   0.00920   0.28830   Biso      1.000     C          0.524266  
         C5        1.0000    0.92650   0.70810   0.45050   Biso      1.000     C          0.524338  
         C6        1.0000    0.83060   0.31720   0.33000   Biso      1.000     C          0.526988  
         C7        1.0000    0.55230   0.13100   0.31400   Biso      1.000     C          0.512163  
         C8        1.0000    0.33060   0.18280   0.83000   Biso      1.000     C          0.5266310000000001  
         C9        1.0000    0.42650   0.79190   0.95050   Biso      1.000     C          0.5248659999999999  
         C10       1.0000    0.48140   0.49080   0.78830   Biso      1.000     C          0.524447  
         C11       1.0000    0.93460   0.21770   0.05270   Biso      1.000     C          0.453251  
         C12       1.0000    0.25880   0.39720   0.03220   Biso      1.000     C          0.538684  
         C13       1.0000    0.74120   0.60280   0.96780   Biso      1.000     C          0.5386850000000001  
         C14       1.0000    0.06540   0.78230   0.94730   Biso      1.000     C          0.453244  
         C15       1.0000    0.51860   0.50920   0.21170   Biso      1.000     C          0.524447  
         C16       1.0000    0.57350   0.20810   0.04950   Biso      1.000     C          0.52487   
         C17       1.0000    0.05230   0.36900   0.81400   Biso      1.000     C          0.5222859999999999  
         C18       1.0000    0.94770   0.63100   0.18600   Biso      1.000     C          0.522287  
         C19       1.0000    0.56540   0.71770   0.44730   Biso      1.000     C          0.450967  
         C20       1.0000    0.24120   0.89720   0.46780   Biso      1.000     C          0.525193  
         C21       1.0000    0.01860   0.99080   0.71170   Biso      1.000     C          0.5242640000000001  
         C22       1.0000    0.66940   0.81720   0.17000   Biso      1.000     C          0.5266350000000001  
         C23       1.0000    0.07350   0.29190   0.54950   Biso      1.000     C          0.524338  
         C24       1.0000    0.16940   0.68280   0.67000   Biso      1.000     C          0.526984  
         H1        1.0000    0.85430   0.24900   0.36560   Biso      1.000     H          0.029644  
         H2        1.0000    0.94600   0.61310   0.45790   Biso      1.000     H          0.031194  
         H3        1.0000    0.48120   0.28220   0.52230   Biso      1.000     H          0.055901  
         H4        1.0000    0.80810   0.16420   0.57270   Biso      1.000     H          0.032625  
         H5        1.0000    0.19190   0.83580   0.42730   Biso      1.000     H          0.032622000000000005          
         H6        1.0000    0.97810   0.98700   0.77040   Biso      1.000     H          0.032764  
         H7        1.0000    0.14570   0.75100   0.63440   Biso      1.000     H          0.029643  
         H8        1.0000    0.05400   0.38690   0.54210   Biso      1.000     H          0.031194  
         H9        1.0000    0.51880   0.71780   0.47770   Biso      1.000     H          0.055901  
         H10       1.0000    0.02190   0.01300   0.22960   Biso      1.000     H          0.032767000000000004          
         H11       1.0000    0.47940   0.81830   0.73190   Biso      1.000     H          0.032198000000000004          
         H12       1.0000    0.98120   0.21780   0.02230   Biso      1.000     H          0.054110000000000005          
         H13       1.0000    0.35430   0.25100   0.86560   Biso      1.000     H          0.029362  
         H14       1.0000    0.52190   0.48700   0.72960   Biso      1.000     H          0.032823000000000005          
         H15       1.0000    0.30810   0.33580   0.07270   Biso      1.000     H          0.028819  
         H16       1.0000    0.02060   0.31830   0.76810   Biso      1.000     H          0.028637  
         H17       1.0000    0.01880   0.78220   0.97770   Biso      1.000     H          0.054109000000000004          
         H18       1.0000    0.55400   0.11310   0.04210   Biso      1.000     H          0.031318  
         H19       1.0000    0.52060   0.18170   0.26810   Biso      1.000     H          0.0322    
         H20       1.0000    0.97940   0.68170   0.23190   Biso      1.000     H          0.028638  
         H21       1.0000    0.44600   0.88690   0.95790   Biso      1.000     H          0.031316000000000004          
         H22       1.0000    0.64570   0.74900   0.13440   Biso      1.000     H          0.029363  
         H23       1.0000    0.69190   0.66420   0.92730   Biso      1.000     H          0.028821  
         H24       1.0000    0.47810   0.51300   0.27040   Biso      1.000     H          0.032824  
         Mn1       1.0000    0.00000   0.50000   0.00000   Biso      1.000     Mn          0.996878  
         Mn2       1.0000    0.74317   0.91538   0.36883   Biso      1.000     Mn          0.978798  
         Mn3       1.0000    0.23947   0.90056   0.81509   Biso      1.000     Mn          0.9704430000000001  
         Mn4       1.0000    0.50000   0.00000   0.50000   Biso      1.000     Mn          0.806786  
         Mn5       1.0000    0.73947   0.59944   0.31509   Biso      1.000     Mn          0.97006   
         Mn6       1.0000    0.75683   0.41538   0.13117   Biso      1.000     Mn          0.9841479999999999  
         Mn7       1.0000    0.00000   0.00000   0.50000   Biso      1.000     Mn          1.002422  
         Mn8       1.0000    0.24317   0.58462   0.86883   Biso      1.000     Mn          0.984145  
         Mn9       1.0000    0.25683   0.08462   0.63117   Biso      1.000     Mn          0.9787969999999999  
         Mn10      1.0000    0.26053   0.40056   0.68491   Biso      1.000     Mn          0.970057  
         Mn11      1.0000    0.50000   0.50000   0.00000   Biso      1.000     Mn          1.004312  
         Mn12      1.0000    0.76053   0.09944   0.18491   Biso      1.000     Mn          0.9704520000000001  
         O1        1.0000    0.12704   0.00190   0.71960   Biso      1.000     O          -0.557095           
         O2        1.0000    0.01900   0.21240   0.50203   Biso      1.000     O          -0.497837           
         O3        1.0000    0.19174   0.70810   0.75249   Biso      1.000     O          -0.550329           
         O4        1.0000    0.60660   0.62040   0.40936   Biso      1.000     O          -0.459165           
         O5        1.0000    0.15347   0.26330   0.60685   Biso      1.000     O          -0.551556           
         O6        1.0000    0.96123   0.00230   0.64117   Biso      1.000     O          -0.505088           
         O7        1.0000    0.18420   0.57530   0.63167   Biso      1.000     O          -0.504035           
         O8        1.0000    0.51290   0.88840   0.62341   Biso      1.000     O          -0.46278400000000003          
         O9        1.0000    0.34620   0.89260   0.46224   Biso      1.000     O          -0.468587           
         O10       1.0000    0.01290   0.61160   0.12341   Biso      1.000     O          -0.497349           
         O11       1.0000    0.68420   0.92470   0.13167   Biso      1.000     O          -0.503373           
         O12       1.0000    0.46123   0.49770   0.14117   Biso      1.000     O          -0.504999           
         O13       1.0000    0.65347   0.23670   0.10685   Biso      1.000     O          -0.5512199999999999           
         O14       1.0000    0.10660   0.87960   0.90936   Biso      1.000     O          -0.46375  
         O15       1.0000    0.69174   0.79190   0.25249   Biso      1.000     O          -0.550335           
         O16       1.0000    0.51900   0.28760   0.00203   Biso      1.000     O          -0.49871899999999997          
         O17       1.0000    0.62704   0.49810   0.21960   Biso      1.000     O          -0.557157           
         O18       1.0000    0.85165   0.57600   0.19750   Biso      1.000     O          -0.546446           
         O19       1.0000    0.68612   0.52880   0.02157   Biso      1.000     O          -0.560096           
         O20       1.0000    0.09858   0.66260   0.93979   Biso      1.000     O          -0.513778           
         O21       1.0000    0.84620   0.60740   0.96224   Biso      1.000     O          -0.5028739999999999           
         O22       1.0000    0.35165   0.92400   0.69750   Biso      1.000     O          -0.544076           
         O23       1.0000    0.90142   0.33740   0.06021   Biso      1.000     O          -0.513777           
         O24       1.0000    0.40142   0.16260   0.56021   Biso      1.000     O          -0.473649           
         O25       1.0000    0.31388   0.47120   0.97843   Biso      1.000     O          -0.560095           
         O26       1.0000    0.14835   0.42400   0.80250   Biso      1.000     O          -0.546445           
         O27       1.0000    0.37296   0.50190   0.78040   Biso      1.000     O          -0.557156           
         O28       1.0000    0.48100   0.71240   0.99797   Biso      1.000     O          -0.498724           
         O29       1.0000    0.30826   0.20810   0.74751   Biso      1.000     O          -0.5503359999999999           
         O30       1.0000    0.89340   0.12040   0.09064   Biso      1.000     O          -0.46374899999999997          
         O31       1.0000    0.34653   0.76330   0.89315   Biso      1.000     O          -0.551217           
         O32       1.0000    0.53877   0.50230   0.85883   Biso      1.000     O          -0.505001           
         O33       1.0000    0.31580   0.07530   0.86833   Biso      1.000     O          -0.503376           
         O34       1.0000    0.98710   0.38840   0.87659   Biso      1.000     O          -0.497352           
         O35       1.0000    0.18612   0.97120   0.52157   Biso      1.000     O          -0.5578270000000001           
         O36       1.0000    0.15380   0.39260   0.03776   Biso      1.000     O          -0.502876           
         O37       1.0000    0.48710   0.11160   0.37659   Biso      1.000     O          -0.46278100000000005          
         O38       1.0000    0.81580   0.42470   0.36833   Biso      1.000     O          -0.504031           
         O39       1.0000    0.03877   0.99770   0.35883   Biso      1.000     O          -0.505083           
         O40       1.0000    0.84653   0.73670   0.39315   Biso      1.000     O          -0.551557           
         O41       1.0000    0.39340   0.37960   0.59064   Biso      1.000     O          -0.459165           
         O42       1.0000    0.80826   0.29190   0.24751   Biso      1.000     O          -0.550329           
         O43       1.0000    0.98100   0.78760   0.49797   Biso      1.000     O          -0.49783299999999997          
         O44       1.0000    0.87296   0.99810   0.28040   Biso      1.000     O          -0.557096           
         O45       1.0000    0.64835   0.07600   0.30250   Biso      1.000     O          -0.544077           
         O46       1.0000    0.81388   0.02880   0.47843   Biso      1.000     O          -0.557828           
         O47       1.0000    0.65380   0.10740   0.53776   Biso      1.000     O          -0.46858599999999995          
         O48       1.0000    0.59858   0.83740   0.43979   Biso      1.000     O          -0.473649 