
##########################################################################
#               Crystallographic Information Format file
#               Produced by PyCifRW module
#
#  This is a CIF file.  CIF has been adopted by the International
#  Union of Crystallography as the standard for data archiving and
#  transmission.
#
#  For information on this file format, follow the CIF links at
#  http://www.iucr.org
##########################################################################

data_image0

_cell_length_a                          10.001
_cell_length_b                          15.5508
_cell_length_c                          15.5508
_cell_angle_alpha                       84.065
_cell_angle_beta                        71.2428
_cell_angle_gamma                       71.2427
_symmetry_space_group_name_H-M          'P 1'
_symmetry_int_tables_number             1
loop_
  _symmetry_equiv_pos_as_xyz
         'x, y, z' 
loop_
  _atom_site_label
  _atom_site_occupancy
  _atom_site_fract_x
  _atom_site_fract_y
  _atom_site_fract_z
  _atom_site_thermal_displace_type
  _atom_site_B_iso_or_equiv
  _atom_site_type_symbol
  _atom_site_charge
         C1        1.0000    0.10472   0.77664   0.66332   Biso      1.000     C          0.012934999999999999          
         C2        1.0000    0.65150   0.84370   0.65330   Biso      1.000     C          0.014228999999999999          
         C3        1.0000    0.71870   0.77120   0.59780   Biso      1.000     C          0.177303  
         C4        1.0000    0.64254   0.74500   0.55332   Biso      1.000     C          0.003885  
         C5        1.0000    0.43691   0.87180   0.61078   Biso      1.000     C          0.590061  
         C6        1.0000    0.13136   0.16332   0.72336   Biso      1.000     C          0.010493  
         C7        1.0000    0.11948   0.94377   0.83107   Biso      1.000     C          0.004078  
         C8        1.0000    0.89432   0.16893   0.05623   Biso      1.000     C          0.007489  
         C9        1.0000    0.01804   0.27664   0.83668   Biso      1.000     C          0.012235  
         C10       1.0000    0.91949   0.38922   0.12820   Biso      1.000     C          0.592629  
         C11       1.0000    0.94086   0.44668   0.25500   Biso      1.000     C          0.004978  
         C12       1.0000    0.08770   0.40220   0.22880   Biso      1.000     C          0.175273  
         C13       1.0000    0.14850   0.34670   0.15630   Biso      1.000     C          0.016487  
         C14       1.0000    0.11948   0.83107   0.94377   Biso      1.000     C          0.005268999999999999          
         C15       1.0000    0.89432   0.05623   0.16893   Biso      1.000     C          0.007776999999999999          
         C16       1.0000    0.13136   0.72336   0.16332   Biso      1.000     C          0.011670999999999999          
         C17       1.0000    0.64254   0.55332   0.74500   Biso      1.000     C          0.003672  
         C18       1.0000    0.71870   0.59780   0.77120   Biso      1.000     C          0.176706  
         C19       1.0000    0.65150   0.65330   0.84370   Biso      1.000     C          0.015181  
         C20       1.0000    0.20055   0.44377   0.66893   Biso      1.000     C          0.006046  
         C21       1.0000    0.10472   0.66332   0.77664   Biso      1.000     C          0.013287  
         C22       1.0000    0.29769   0.37180   0.88922   Biso      1.000     C          0.594435  
         C23       1.0000    0.44586   0.24500   0.94668   Biso      1.000     C          0.004229  
         C24       1.0000    0.56650   0.27120   0.90220   Biso      1.000     C          0.177618  
         C25       1.0000    0.55480   0.34370   0.84670   Biso      1.000     C          0.011335  
         C26       1.0000    0.31325   0.55623   0.33107   Biso      1.000     C          0.007918000000000001          
         C27       1.0000    0.54468   0.33668   0.22336   Biso      1.000     C          0.012921  
         C28       1.0000    0.55871   0.62820   0.11078   Biso      1.000     C          0.591837  
         C29       1.0000    0.63754   0.75500   0.05332   Biso      1.000     C          0.005449  
         C30       1.0000    0.43691   0.61078   0.87180   Biso      1.000     C          0.591627  
         C31       1.0000    0.01804   0.83668   0.27664   Biso      1.000     C          0.012272  
         C32       1.0000    0.91949   0.12820   0.38922   Biso      1.000     C          0.5924149999999999  
         C33       1.0000    0.94086   0.25500   0.44668   Biso      1.000     C          0.0049960000000000004         
         C34       1.0000    0.51500   0.25750   0.25750   Biso      1.000     C          0.149228  
         C35       1.0000    0.61880   0.34770   0.34770   Biso      1.000     C          0.573451  
         C36       1.0000    0.03000   0.74250   0.74250   Biso      1.000     C          0.148553  
         C37       1.0000    0.31420   0.65230   0.65230   Biso      1.000     C          0.574391  
         C38       1.0000    0.02250   0.75750   0.24250   Biso      1.000     C          0.151197  
         C39       1.0000    0.21650   0.84770   0.15230   Biso      1.000     C          0.571431  
         C40       1.0000    0.02250   0.24250   0.75750   Biso      1.000     C          0.151505  
         C41       1.0000    0.21650   0.15230   0.84770   Biso      1.000     C          0.569913  
         C42       1.0000    0.18930   0.60570   0.39430   Biso      1.000     C          0.171225  
         C43       1.0000    0.45740   0.62400   0.37600   Biso      1.000     C          0.5897479999999999  
         C44       1.0000    0.18930   0.39430   0.60570   Biso      1.000     C          0.171307  
         C45       1.0000    0.45740   0.37600   0.62400   Biso      1.000     C          0.589639  
         C46       1.0000    0.04500   0.89430   0.89430   Biso      1.000     C          0.175227  
         C47       1.0000    0.33140   0.87600   0.87600   Biso      1.000     C          0.590014  
         C48       1.0000    0.83360   0.10570   0.10570   Biso      1.000     C          0.171984  
         C49       1.0000    0.08340   0.12400   0.12400   Biso      1.000     C          0.596521  
         C50       1.0000    0.55480   0.84670   0.34370   Biso      1.000     C          0.011254  
         C51       1.0000    0.56650   0.90220   0.27120   Biso      1.000     C          0.177852  
         C52       1.0000    0.44586   0.94668   0.24500   Biso      1.000     C          0.004548  
         C53       1.0000    0.29769   0.88922   0.37180   Biso      1.000     C          0.594539  
         C54       1.0000    0.20055   0.66893   0.44377   Biso      1.000     C          0.005752  
         C55       1.0000    0.74520   0.15330   0.65630   Biso      1.000     C          0.016444999999999998          
         C56       1.0000    0.73990   0.09780   0.72880   Biso      1.000     C          0.173474  
         C57       1.0000    0.63754   0.05332   0.75500   Biso      1.000     C          0.005009  
         C58       1.0000    0.55871   0.11078   0.62820   Biso      1.000     C          0.5899340000000001  
         C59       1.0000    0.54468   0.22336   0.33668   Biso      1.000     C          0.012598999999999999          
         C60       1.0000    0.31325   0.33107   0.55623   Biso      1.000     C          0.00778   
         C61       1.0000    0.14850   0.15630   0.34670   Biso      1.000     C          0.016802  
         C62       1.0000    0.08770   0.22880   0.40220   Biso      1.000     C          0.17542   
         C63       1.0000    0.73990   0.72880   0.09780   Biso      1.000     C          0.172988  
         C64       1.0000    0.74520   0.65630   0.15330   Biso      1.000     C          0.016524  
         Cu1       1.0000    0.12874   0.26113   0.99859   Biso      1.000     Cu          0.7018479999999999  
         Cu2       1.0000    0.37733   0.76113   0.50141   Biso      1.000     Cu          0.700545  
         Cu3       1.0000    0.63987   0.23887   0.49859   Biso      1.000     Cu          0.699891  
         Cu4       1.0000    0.12874   0.99859   0.26113   Biso      1.000     Cu          0.705178  
         Cu5       1.0000    0.38846   0.00141   0.73887   Biso      1.000     Cu          0.681434  
         Cu6       1.0000    0.63987   0.49859   0.23887   Biso      1.000     Cu          0.702194  
         Cu7       1.0000    0.37733   0.50141   0.76113   Biso      1.000     Cu          0.703021  
         Cu8       1.0000    0.38846   0.73887   0.00141   Biso      1.000     Cu          0.6970069999999999  
         F1        1.0000    0.45952   0.21398   0.21398   Biso      1.000     F          -0.137927           
         F2        1.0000    0.88748   0.78602   0.78602   Biso      1.000     F          -0.13713399999999998          
         F3        1.0000    0.17200   0.41166   0.27754   Biso      1.000     F          -0.151294           
         F4        1.0000    0.69954   0.22246   0.91166   Biso      1.000     F          -0.15218800000000002          
         F5        1.0000    0.86120   0.58834   0.72246   Biso      1.000     F          -0.150846           
         F6        1.0000    0.86120   0.72246   0.58834   Biso      1.000     F          -0.150172           
         F7        1.0000    0.17200   0.27754   0.41166   Biso      1.000     F          -0.151104           
         F8        1.0000    0.83366   0.08834   0.77754   Biso      1.000     F          -0.149595           
         F9        1.0000    0.69954   0.91166   0.22246   Biso      1.000     F          -0.151975           
         F10       1.0000    0.71140   0.09520   0.09520   Biso      1.000     F          -0.147642           
         F11       1.0000    0.90180   0.90480   0.90480   Biso      1.000     F          -0.14826  
         F12       1.0000    0.05660   0.40480   0.59520   Biso      1.000     F          -0.14741300000000002          
         F13       1.0000    0.05660   0.59520   0.40480   Biso      1.000     F          -0.147598           
         F14       1.0000    0.92350   0.28602   0.71398   Biso      1.000     F          -0.136915           
         F15       1.0000    0.92350   0.71398   0.28602   Biso      1.000     F          -0.137223           
         F16       1.0000    0.83366   0.77754   0.08834   Biso      1.000     F          -0.150227           
         H1        1.0000    0.89780   0.48160   0.30760   Biso      1.000     H          0.14113599999999998           
         H2        1.0000    0.63960   0.81340   0.35900   Biso      1.000     H          0.12256800000000001           
         H3        1.0000    0.85010   0.20550   0.01550   Biso      1.000     H          0.12338800000000001           
         H4        1.0000    0.94710   0.33130   0.85950   Biso      1.000     H          0.133732  
         H5        1.0000    0.24860   0.31340   0.14100   Biso      1.000     H          0.120432  
         H6        1.0000    0.45540   0.98160   0.19240   Biso      1.000     H          0.1413    
         H7        1.0000    0.13790   0.66870   0.14050   Biso      1.000     H          0.132547  
         H8        1.0000    0.07110   0.79450   0.98450   Biso      1.000     H          0.124628  
         H9        1.0000    0.07110   0.98450   0.79450   Biso      1.000     H          0.12453199999999999           
         H10       1.0000    0.13790   0.14050   0.66870   Biso      1.000     H          0.133324  
         H11       1.0000    0.81200   0.64100   0.18660   Biso      1.000     H          0.119163  
         H12       1.0000    0.68700   0.69240   0.51840   Biso      1.000     H          0.141841  
         H13       1.0000    0.70300   0.85900   0.68660   Biso      1.000     H          0.120796  
         H14       1.0000    0.85010   0.01550   0.20550   Biso      1.000     H          0.123464  
         H15       1.0000    0.94710   0.85950   0.33130   Biso      1.000     H          0.132901  
         H16       1.0000    0.89780   0.30760   0.48160   Biso      1.000     H          0.141287  
         H17       1.0000    0.30560   0.29450   0.51550   Biso      1.000     H          0.122549  
         H18       1.0000    0.52840   0.16870   0.35950   Biso      1.000     H          0.13364600000000001           
         H19       1.0000    0.62940   0.01840   0.80760   Biso      1.000     H          0.142351  
         H20       1.0000    0.24860   0.14100   0.31340   Biso      1.000     H          0.12061600000000001           
         H21       1.0000    0.11560   0.70550   0.48450   Biso      1.000     H          0.12250799999999999           
         H22       1.0000    0.68700   0.51840   0.69240   Biso      1.000     H          0.141182  
         H23       1.0000    0.70300   0.68660   0.85900   Biso      1.000     H          0.120155  
         H24       1.0000    0.81200   0.18660   0.64100   Biso      1.000     H          0.119887  
         H25       1.0000    0.05660   0.64050   0.83130   Biso      1.000     H          0.13289700000000002           
         H26       1.0000    0.45540   0.19240   0.98160   Biso      1.000     H          0.141272  
         H27       1.0000    0.11560   0.48450   0.70550   Biso      1.000     H          0.122721  
         H28       1.0000    0.30560   0.51550   0.29450   Biso      1.000     H          0.12250499999999999           
         H29       1.0000    0.52840   0.35950   0.16870   Biso      1.000     H          0.133748  
         H30       1.0000    0.62940   0.80760   0.01840   Biso      1.000     H          0.141344  
         H31       1.0000    0.05660   0.83130   0.64050   Biso      1.000     H          0.13273900000000002           
         H32       1.0000    0.63960   0.35900   0.81340   Biso      1.000     H          0.12255   
         N1        1.0000    0.59570   0.26683   0.38077   Biso      1.000     N          -0.332656           
         N2        1.0000    0.31163   0.94044   0.29510   Biso      1.000     N          -0.338447           
         N3        1.0000    0.42372   0.83850   0.39386   Biso      1.000     N          -0.331203           
         N4        1.0000    0.24330   0.73317   0.61923   Biso      1.000     N          -0.33169699999999996          
         N5        1.0000    0.33169   0.67905   0.43457   Biso      1.000     N          -0.324305           
         N6        1.0000    0.54717   0.05956   0.70490   Biso      1.000     N          -0.329328           
         N7        1.0000    0.44531   0.32095   0.56543   Biso      1.000     N          -0.323893           
         N8        1.0000    0.65608   0.16150   0.60614   Biso      1.000     N          -0.32953499999999997          
         N9        1.0000    0.06758   0.10614   0.33850   Biso      1.000     N          -0.333402           
         N10       1.0000    0.01626   0.17905   0.06543   Biso      1.000     N          -0.329499           
         N11       1.0000    0.11253   0.23317   0.88077   Biso      1.000     N          -0.32795100000000005          
         N12       1.0000    0.06758   0.33850   0.10614   Biso      1.000     N          -0.333646           
         N13       1.0000    0.85673   0.44044   0.20490   Biso      1.000     N          -0.33819  
         N14       1.0000    0.26074   0.82095   0.93457   Biso      1.000     N          -0.31987600000000005          
         N15       1.0000    0.22647   0.76683   0.11923   Biso      1.000     N          -0.32921300000000003          
         N16       1.0000    0.51222   0.66150   0.89386   Biso      1.000     N          -0.33105500000000004          
         N17       1.0000    0.50207   0.55956   0.79510   Biso      1.000     N          -0.33857600000000004          
         N18       1.0000    0.33169   0.43457   0.67905   Biso      1.000     N          -0.324141           
         N19       1.0000    0.24330   0.61923   0.73317   Biso      1.000     N          -0.331955           
         N20       1.0000    0.42372   0.39386   0.83850   Biso      1.000     N          -0.33177199999999996          
         N21       1.0000    0.31163   0.29510   0.94044   Biso      1.000     N          -0.338075           
         N22       1.0000    0.59570   0.38077   0.26683   Biso      1.000     N          -0.33261599999999997          
         N23       1.0000    0.65608   0.60614   0.16150   Biso      1.000     N          -0.332813           
         N24       1.0000    0.85673   0.20490   0.44044   Biso      1.000     N          -0.33758  
         N25       1.0000    0.44531   0.56543   0.32095   Biso      1.000     N          -0.324439           
         N26       1.0000    0.11253   0.88077   0.23317   Biso      1.000     N          -0.330783           
         N27       1.0000    0.01626   0.06543   0.17905   Biso      1.000     N          -0.329931           
         N28       1.0000    0.50207   0.79510   0.55956   Biso      1.000     N          -0.33463000000000004          
         N29       1.0000    0.51222   0.89386   0.66150   Biso      1.000     N          -0.324776           
         N30       1.0000    0.22647   0.11923   0.76683   Biso      1.000     N          -0.323614           
         N31       1.0000    0.26074   0.93457   0.82095   Biso      1.000     N          -0.316367           
         N32       1.0000    0.54717   0.70490   0.05956   Biso      1.000     N          -0.33684400000000003          
         O1        1.0000    0.46031   0.87109   0.87109   Biso      1.000     O          -0.5828180000000001           
         O2        1.0000    0.84646   0.38470   0.07898   Biso      1.000     O          -0.583587           
         O3        1.0000    0.31014   0.61530   0.92102   Biso      1.000     O          -0.582725           
         O4        1.0000    0.20249   0.12891   0.12891   Biso      1.000     O          -0.5852229999999999           
         O5        1.0000    0.17544   0.42102   0.88470   Biso      1.000     O          -0.5844590000000001           
         O6        1.0000    0.31014   0.92102   0.61530   Biso      1.000     O          -0.581928           
         O7        1.0000    0.84646   0.07898   0.38470   Biso      1.000     O          -0.583217           
         O8        1.0000    0.48116   0.11530   0.57898   Biso      1.000     O          -0.5801430000000001           
         O9        1.0000    0.65980   0.39110   0.39110   Biso      1.000     O          -0.555708           
         O10       1.0000    0.44200   0.60890   0.60890   Biso      1.000     O          -0.5561520000000001           
         O11       1.0000    0.30090   0.89110   0.10890   Biso      1.000     O          -0.554248           
         O12       1.0000    0.30090   0.10890   0.89110   Biso      1.000     O          -0.551208           
         O13       1.0000    0.17544   0.88470   0.42102   Biso      1.000     O          -0.584701           
         O14       1.0000    0.58140   0.37109   0.62891   Biso      1.000     O          -0.5837319999999999           
         O15       1.0000    0.48116   0.57898   0.11530   Biso      1.000     O          -0.581845           
         O16       1.0000    0.58140   0.62891   0.37109   Biso      1.000     O          -0.583795 