
##########################################################################
#               Crystallographic Information Format file
#               Produced by PyCifRW module
#
#  This is a CIF file.  CIF has been adopted by the International
#  Union of Crystallography as the standard for data archiving and
#  transmission.
#
#  For information on this file format, follow the CIF links at
#  http://www.iucr.org
##########################################################################

data_image0

_cell_length_a                          8.5046
_cell_length_b                          13.3374
_cell_length_c                          14.1584
_cell_angle_alpha                       61.9002
_cell_angle_beta                        85.719
_cell_angle_gamma                       80.881
_symmetry_space_group_name_H-M          'P 1'
_symmetry_int_tables_number             1
loop_
  _symmetry_equiv_pos_as_xyz
         'x, y, z' 
loop_
  _atom_site_label
  _atom_site_occupancy
  _atom_site_fract_x
  _atom_site_fract_y
  _atom_site_fract_z
  _atom_site_thermal_displace_type
  _atom_site_B_iso_or_equiv
  _atom_site_type_symbol
  _atom_site_charge
         C1        1.0000    0.52560   0.00140   0.06400   Biso      1.000     C          -0.147025           
         C2        1.0000    0.55620   0.22670   0.20540   Biso      1.000     C          0.07703   
         C3        1.0000    0.71340   0.08590   0.35440   Biso      1.000     C          0.166516  
         C4        1.0000    0.89140   0.93080   0.48640   Biso      1.000     C          -0.13023900000000002          
         C5        1.0000    0.55000   0.39160   0.46740   Biso      1.000     C          0.126031  
         C6        1.0000    0.87180   0.02010   0.39840   Biso      1.000     C          -0.145871           
         C7        1.0000    0.81680   0.53570   0.97880   Biso      1.000     C          0.091566  
         C8        1.0000    0.90710   0.78200   0.01340   Biso      1.000     C          -0.16404000000000002          
         C9        1.0000    0.99080   0.95660   0.00380   Biso      1.000     C          0.124556  
         C10       1.0000    0.69420   0.36470   0.51760   Biso      1.000     C          -0.155617           
         C11       1.0000    0.23300   0.52690   0.17500   Biso      1.000     C          0.06414600000000001           
         C12       1.0000    0.19420   0.88230   0.48240   Biso      1.000     C          -0.156167           
         C13       1.0000    0.42970   0.84980   0.04100   Biso      1.000     C          -0.121705           
         C14       1.0000    0.14760   0.16330   0.12620   Biso      1.000     C          0.5383939999999999  
         C15       1.0000    0.54510   0.39740   0.36900   Biso      1.000     C          -0.15441300000000002          
         C16       1.0000    0.50680   0.02870   0.88720   Biso      1.000     C          -0.154087           
         C17       1.0000    0.09690   0.09140   0.08340   Biso      1.000     C          -0.013318           
         C18       1.0000    0.33040   0.71670   0.63220   Biso      1.000     C          -0.030362           
         C19       1.0000    0.20360   0.41390   0.75160   Biso      1.000     C          -0.17940699999999998          
         C20       1.0000    0.27730   0.63300   0.13460   Biso      1.000     C          -0.19413699999999998          
         C21       1.0000    0.49080   0.96040   0.99620   Biso      1.000     C          0.124549  
         C22       1.0000    0.39140   0.41720   0.51360   Biso      1.000     C          -0.129158           
         C23       1.0000    0.05000   0.85900   0.53260   Biso      1.000     C          0.127592  
         C24       1.0000    0.73300   0.70190   0.82500   Biso      1.000     C          0.065304  
         C25       1.0000    0.83890   0.34280   0.46840   Biso      1.000     C          -0.115061           
         C26       1.0000    0.68550   0.37710   0.31920   Biso      1.000     C          -0.11180999999999999          
         C27       1.0000    0.92870   0.50310   0.63560   Biso      1.000     C          0.090016  
         C28       1.0000    0.57510   0.07270   0.41440   Biso      1.000     C          -0.203099           
         C29       1.0000    0.00680   0.91590   0.11280   Biso      1.000     C          -0.15423800000000001          
         C30       1.0000    0.97540   0.32580   0.31040   Biso      1.000     C          0.5532239999999999  
         C31       1.0000    0.85050   0.71610   0.96700   Biso      1.000     C          0.16356800000000002           
         C32       1.0000    0.02560   0.06540   0.93600   Biso      1.000     C          -0.147265           
         C33       1.0000    0.58260   0.10800   0.02580   Biso      1.000     C          -0.09268  
         C34       1.0000    0.04510   0.76640   0.63100   Biso      1.000     C          -0.154896           
         C35       1.0000    0.56090   0.13520   0.84920   Biso      1.000     C          -0.10928900000000001          
         C36       1.0000    0.35050   0.68310   0.03300   Biso      1.000     C          0.16251600000000002           
         C37       1.0000    0.07510   0.48710   0.58560   Biso      1.000     C          -0.201735           
         C38       1.0000    0.36520   0.62150   0.97640   Biso      1.000     C          -0.185526           
         C39       1.0000    0.08260   0.13380   0.97420   Biso      1.000     C          -0.091382           
         C40       1.0000    0.37180   0.41850   0.60160   Biso      1.000     C          -0.146778           
         C41       1.0000    0.42870   0.13870   0.36440   Biso      1.000     C          0.08942699999999999           
         C42       1.0000    0.33890   0.81120   0.53160   Biso      1.000     C          -0.114551           
         C43       1.0000    0.77730   0.76760   0.86540   Biso      1.000     C          -0.194381           
         C44       1.0000    0.40710   0.79540   0.98660   Biso      1.000     C          -0.161679           
         C45       1.0000    0.47540   0.63620   0.68960   Biso      1.000     C          0.5529310000000001  
         C46       1.0000    0.86520   0.59790   0.02360   Biso      1.000     C          -0.184644           
         C47       1.0000    0.59690   0.17480   0.91660   Biso      1.000     C          -0.012965           
         C48       1.0000    0.21340   0.44030   0.64560   Biso      1.000     C          0.166573  
         C49       1.0000    0.31680   0.51450   0.02120   Biso      1.000     C          0.094202  
         C50       1.0000    0.70360   0.16550   0.24840   Biso      1.000     C          -0.178238           
         C51       1.0000    0.05620   0.43210   0.79460   Biso      1.000     C          0.07774500000000001           
         C52       1.0000    0.83040   0.34890   0.36780   Biso      1.000     C          -0.030381000000000002         
         C53       1.0000    0.06090   0.98440   0.15080   Biso      1.000     C          -0.10820899999999999          
         C54       1.0000    0.18550   0.69630   0.68080   Biso      1.000     C          -0.111332           
         C55       1.0000    0.92970   0.89080   0.95900   Biso      1.000     C          -0.120004           
         C56       1.0000    0.64760   0.28950   0.87380   Biso      1.000     C          0.540549  
         Co1       1.0000    0.20098   0.29714   0.19284   Biso      1.000     Co          0.622402  
         Co2       1.0000    0.70098   0.48998   0.80716   Biso      1.000     Co          0.624061  
         H1        1.0000    0.90440   0.92920   0.88580   Biso      1.000     H          0.110199  
         H2        1.0000    0.82800   0.45530   0.01920   Biso      1.000     H          0.11121199999999999           
         H3        1.0000    0.01110   0.09520   0.86200   Biso      1.000     H          0.115469  
         H4        1.0000    0.42900   0.83110   0.91280   Biso      1.000     H          0.113202  
         H5        1.0000    0.98150   0.84260   0.16140   Biso      1.000     H          0.11333199999999999           
         H6        1.0000    0.19750   0.94610   0.41460   Biso      1.000     H          0.118343  
         H7        1.0000    0.90840   0.55960   0.09300   Biso      1.000     H          0.127752  
         H8        1.0000    0.25900   0.67340   0.17460   Biso      1.000     H          0.12732100000000002           
         H9        1.0000    0.07250   0.95560   0.22500   Biso      1.000     H          0.113924  
         H10       1.0000    0.05190   0.41220   0.86780   Biso      1.000     H          0.092175  
         H11       1.0000    0.57780   0.02030   0.48780   Biso      1.000     H          0.130177  
         H12       1.0000    0.79990   0.90630   0.52720   Biso      1.000     H          0.10910999999999998           
         H13       1.0000    0.07780   0.50810   0.51220   Biso      1.000     H          0.128899  
         H14       1.0000    0.40440   0.81500   0.11420   Biso      1.000     H          0.11078299999999999           
         H15       1.0000    0.57250   0.18060   0.77500   Biso      1.000     H          0.114553  
         H16       1.0000    0.32800   0.47450   0.98080   Biso      1.000     H          0.109828  
         H17       1.0000    0.48150   0.00400   0.83860   Biso      1.000     H          0.11371300000000001           
         H18       1.0000    0.11000   0.20640   0.92640   Biso      1.000     H          0.11121099999999999           
         H19       1.0000    0.55190   0.28000   0.13220   Biso      1.000     H          0.092463  
         H20       1.0000    0.68040   0.38300   0.25060   Biso      1.000     H          0.106603  
         H21       1.0000    0.92900   0.74390   0.08720   Biso      1.000     H          0.113843  
         H22       1.0000    0.43730   0.82770   0.49700   Biso      1.000     H          0.11533099999999999           
         H23       1.0000    0.83490   0.53400   0.59440   Biso      1.000     H          0.10545299999999999           
         H24       1.0000    0.29990   0.43350   0.47280   Biso      1.000     H          0.10914700000000001           
         H25       1.0000    0.18040   0.63360   0.74940   Biso      1.000     H          0.106531  
         H26       1.0000    0.40840   0.65260   0.90700   Biso      1.000     H          0.127987  
         H27       1.0000    0.94680   0.74960   0.66560   Biso      1.000     H          0.1074    
         H28       1.0000    0.96270   0.04720   0.35780   Biso      1.000     H          0.12528699999999998           
         H29       1.0000    0.75900   0.84800   0.82540   Biso      1.000     H          0.12643900000000002           
         H30       1.0000    0.33490   0.12840   0.40560   Biso      1.000     H          0.105843  
         H31       1.0000    0.18590   0.49520   0.24340   Biso      1.000     H          0.098838  
         H32       1.0000    0.68590   0.73860   0.75660   Biso      1.000     H          0.098929  
         H33       1.0000    0.61000   0.13280   0.07360   Biso      1.000     H          0.111926  
         H34       1.0000    0.69750   0.36070   0.58540   Biso      1.000     H          0.11883699999999998           
         H35       1.0000    0.44680   0.41520   0.33440   Biso      1.000     H          0.107457  
         H36       1.0000    0.93730   0.32470   0.50300   Biso      1.000     H          0.11573599999999999           
         H37       1.0000    0.46270   0.40500   0.64220   Biso      1.000     H          0.125499  
         H38       1.0000    0.29540   0.38390   0.79460   Biso      1.000     H          0.138803  
         H39       1.0000    0.79540   0.17850   0.20540   Biso      1.000     H          0.137882  
         H40       1.0000    0.51110   0.95720   0.13800   Biso      1.000     H          0.115746  
         N1        1.0000    0.42100   0.21530   0.26020   Biso      1.000     N          -0.20023  
         N2        1.0000    0.75420   0.58500   0.87940   Biso      1.000     N          -0.21756999999999999          
         N3        1.0000    0.25420   0.46440   0.12060   Biso      1.000     N          -0.216677           
         N4        1.0000    0.92100   0.47550   0.73980   Biso      1.000     N          -0.20157  
         O1        1.0000    0.67810   0.33079   0.93502   Biso      1.000     O          -0.528728           
         O2        1.0000    0.60870   0.65200   0.64520   Biso      1.000     O          -0.561218           
         O3        1.0000    0.65360   0.35239   0.77362   Biso      1.000     O          -0.500691           
         O4        1.0000    0.46300   0.55830   0.78360   Biso      1.000     O          -0.502794           
         O5        1.0000    0.15360   0.12601   0.22638   Biso      1.000     O          -0.49957299999999993          
         O6        1.0000    0.10870   0.29720   0.35480   Biso      1.000     O          -0.560681           
         O7        1.0000    0.96300   0.34190   0.21640   Biso      1.000     O          -0.503119           
         O8        1.0000    0.17810   0.26581   0.06498   Biso      1.000     O          -0.527541 