
##########################################################################
#               Crystallographic Information Format file
#               Produced by PyCifRW module
#
#  This is a CIF file.  CIF has been adopted by the International
#  Union of Crystallography as the standard for data archiving and
#  transmission.
#
#  For information on this file format, follow the CIF links at
#  http://www.iucr.org
##########################################################################

data_image0

_cell_length_a                          13.515
_cell_length_b                          16.1819
_cell_length_c                          16.1819
_cell_angle_alpha                       79.957
_cell_angle_beta                        65.317
_cell_angle_gamma                       65.3171
_symmetry_space_group_name_H-M          'P 1'
_symmetry_int_tables_number             1
loop_
  _symmetry_equiv_pos_as_xyz
         'x, y, z' 
loop_
  _atom_site_label
  _atom_site_occupancy
  _atom_site_fract_x
  _atom_site_fract_y
  _atom_site_fract_z
  _atom_site_thermal_displace_type
  _atom_site_B_iso_or_equiv
  _atom_site_type_symbol
  _atom_site_charge
         C1        1.0000    0.10040   0.82498   0.64722   Biso      1.000     C          -0.239152           
         C2        1.0000    0.92382   0.86058   0.27178   Biso      1.000     C          -0.087012           
         C3        1.0000    0.01029   0.81747   0.38435   Biso      1.000     C          0.265684  
         C4        1.0000    0.18810   0.50907   0.04253   Biso      1.000     C          -0.112967           
         C5        1.0000    0.16677   0.86365   0.37721   Biso      1.000     C          -0.098971           
         C6        1.0000    0.24510   0.42971   0.98969   Biso      1.000     C          -0.116312           
         C7        1.0000    0.24376   0.59206   0.32562   Biso      1.000     C          -0.236773           
         C8        1.0000    0.94505   0.76070   0.42420   Biso      1.000     C          -0.231598           
         C9        1.0000    0.85955   0.80434   0.31076   Biso      1.000     C          -0.072823           
         C10       1.0000    0.99673   0.86733   0.30761   Biso      1.000     C          -0.236429           
         C11       1.0000    0.46440   0.70590   0.22830   Biso      1.000     C          0.548633  
         C12       1.0000    0.44525   0.82817   0.41633   Biso      1.000     C          0.014529  
         C13       1.0000    0.24575   0.34856   0.03154   Biso      1.000     C          0.061706  
         C14       1.0000    0.37481   0.66909   0.23789   Biso      1.000     C          -0.067886           
         C15       1.0000    0.33518   0.68132   0.16812   Biso      1.000     C          -0.092697           
         C16       1.0000    0.06642   0.58188   0.20068   Biso      1.000     C          -0.088624           
         C17       1.0000    0.04190   0.00607   0.47513   Biso      1.000     C          -0.103692           
         C18       1.0000    0.32816   0.62377   0.31691   Biso      1.000     C          -0.097506           
         C19       1.0000    0.00517   0.09893   0.48413   Biso      1.000     C          -0.12067  
         C20       1.0000    0.20261   0.60390   0.25488   Biso      1.000     C          0.268909  
         C21       1.0000    0.87469   0.75444   0.38658   Biso      1.000     C          -0.097604           
         C22       1.0000    0.13325   0.50227   0.13623   Biso      1.000     C          0.060409  
         C23       1.0000    0.78067   0.79851   0.27215   Biso      1.000     C          0.552439  
         C24       1.0000    0.25238   0.64722   0.17502   Biso      1.000     C          -0.240038           
         C25       1.0000    0.29425   0.57580   0.76070   Biso      1.000     C          -0.234019           
         C26       1.0000    0.91787   0.60975   0.96551   Biso      1.000     C          0.069814  
         C27       1.0000    0.76937   0.04253   0.49093   Biso      1.000     C          -0.10775  
         C28       1.0000    0.80440   0.27178   0.13942   Biso      1.000     C          -0.087737           
         C29       1.0000    0.72271   0.03154   0.65144   Biso      1.000     C          0.060028  
         C30       1.0000    0.76521   0.98969   0.57029   Biso      1.000     C          -0.117891           
         C31       1.0000    0.73290   0.20068   0.41812   Biso      1.000     C          -0.092415           
         C32       1.0000    0.60536   0.38435   0.18253   Biso      1.000     C          0.268107  
         C33       1.0000    0.38730   0.23789   0.33091   Biso      1.000     C          -0.070389           
         C34       1.0000    0.94718   0.27215   0.20149   Biso      1.000     C          0.548087  
         C35       1.0000    0.63075   0.42420   0.23930   Biso      1.000     C          -0.232926           
         C36       1.0000    0.49313   0.39025   0.03449   Biso      1.000     C          0.073394  
         C37       1.0000    0.68975   0.17183   0.58367   Biso      1.000     C          0.017129  
         C38       1.0000    0.54251   0.25488   0.39610   Biso      1.000     C          0.271577  
         C39       1.0000    0.69566   0.30761   0.13267   Biso      1.000     C          -0.240831           
         C40       1.0000    0.73873   0.38658   0.24556   Biso      1.000     C          -0.096568           
         C41       1.0000    0.73052   0.13623   0.49773   Biso      1.000     C          0.058533  
         C42       1.0000    0.35493   0.31691   0.37623   Biso      1.000     C          -0.099567           
         C43       1.0000    0.57260   0.17502   0.35278   Biso      1.000     C          -0.231858           
         C44       1.0000    0.49670   0.16812   0.31868   Biso      1.000     C          -0.096715           
         C45       1.0000    0.51070   0.48413   0.90107   Biso      1.000     C          -0.121638           
         C46       1.0000    0.30730   0.22830   0.29410   Biso      1.000     C          0.552287  
         C47       1.0000    0.54760   0.40925   0.85035   Biso      1.000     C          0.079352  
         C48       1.0000    0.82969   0.31076   0.19566   Biso      1.000     C          -0.070182           
         C49       1.0000    0.48297   0.47513   0.99393   Biso      1.000     C          -0.105675           
         C50       1.0000    0.45602   0.37721   0.13635   Biso      1.000     C          -0.098138           
         C51       1.0000    0.04315   0.14965   0.40925   Biso      1.000     C          0.079588  
         C52       1.0000    0.43062   0.32562   0.40794   Biso      1.000     C          -0.236089           
         C53       1.0000    0.14861   0.02218   0.31800   Biso      1.000     C          -0.012655           
         C54       1.0000    0.13842   0.41633   0.17183   Biso      1.000     C          0.018301  
         C55       1.0000    0.52310   0.99393   0.52487   Biso      1.000     C          -0.104297           
         C56       1.0000    0.40569   0.96846   0.34856   Biso      1.000     C          0.061242  
         C57       1.0000    0.89590   0.51587   0.09893   Biso      1.000     C          -0.119776           
         C58       1.0000    0.82921   0.68200   0.02218   Biso      1.000     C          -0.012178           
         C59       1.0000    0.35170   0.79932   0.58188   Biso      1.000     C          -0.090895           
         C60       1.0000    0.82970   0.77170   0.70590   Biso      1.000     C          0.55557   
         C61       1.0000    0.42082   0.72785   0.79851   Biso      1.000     C          0.552554  
         C62       1.0000    0.95610   0.76211   0.66909   Biso      1.000     C          -0.06839  
         C63       1.0000    0.17224   0.61565   0.81747   Biso      1.000     C          0.266833  
         C64       1.0000    0.30283   0.95747   0.50907   Biso      1.000     C          -0.112487           
         C65       1.0000    0.39860   0.29410   0.77170   Biso      1.000     C          0.554649  
         C66       1.0000    0.16418   0.67438   0.59206   Biso      1.000     C          -0.236533           
         C67       1.0000    0.21560   0.72822   0.86058   Biso      1.000     C          -0.087982           
         C68       1.0000    0.33611   0.68924   0.80434   Biso      1.000     C          -0.07329  
         C69       1.0000    0.96958   0.62279   0.86365   Biso      1.000     C          -0.094051           
         C70       1.0000    0.98350   0.83188   0.68132   Biso      1.000     C          -0.094294           
         C71       1.0000    0.37087   0.61342   0.75444   Biso      1.000     C          -0.094715           
         C72       1.0000    0.95203   0.52487   0.00607   Biso      1.000     C          -0.103949           
         C73       1.0000    0.19349   0.74512   0.60390   Biso      1.000     C          0.268017  
         C74       1.0000    0.32519   0.01031   0.42971   Biso      1.000     C          -0.116796           
         C75       1.0000    0.04807   0.68309   0.62377   Biso      1.000     C          -0.101159           
         C76       1.0000    0.80720   0.59075   0.14965   Biso      1.000     C          0.075833  
         C77       1.0000    0.36448   0.86377   0.50227   Biso      1.000     C          0.061189  
         C78       1.0000    0.11662   0.96551   0.39025   Biso      1.000     C          0.070371  
         C79       1.0000    0.40763   0.13635   0.62279   Biso      1.000     C          -0.099984           
         C80       1.0000    0.85133   0.20149   0.72785   Biso      1.000     C          0.550398  
         C81       1.0000    0.13594   0.69239   0.86733   Biso      1.000     C          -0.236608           
         C82       1.0000    0.48879   0.97782   0.68200   Biso      1.000     C          -0.014425           
         C83       1.0000    0.05618   0.13942   0.72822   Biso      1.000     C          -0.087158           
         C84       1.0000    0.16144   0.40794   0.67438   Biso      1.000     C          -0.235492           
         C85       1.0000    0.06139   0.39610   0.74512   Biso      1.000     C          0.267584  
         C86       1.0000    0.72658   0.58367   0.82817   Biso      1.000     C          0.019551  
         C87       1.0000    0.26884   0.37623   0.68309   Biso      1.000     C          -0.098546           
         C88       1.0000    0.58823   0.90107   0.51587   Biso      1.000     C          -0.121268           
         C89       1.0000    0.97465   0.19566   0.68924   Biso      1.000     C          -0.072883           
         C90       1.0000    0.60205   0.85035   0.59075   Biso      1.000     C          0.080657  
         C91       1.0000    0.01571   0.24556   0.61342   Biso      1.000     C          -0.094787           
         C92       1.0000    0.62585   0.65144   0.96846   Biso      1.000     C          0.061558  
         C93       1.0000    0.21211   0.18253   0.61565   Biso      1.000     C          0.266859  
         C94       1.0000    0.73970   0.49093   0.95747   Biso      1.000     C          -0.11177  
         C95       1.0000    0.18462   0.31868   0.83188   Biso      1.000     C          -0.093959           
         C96       1.0000    0.12995   0.23930   0.57580   Biso      1.000     C          -0.23336  
         C97       1.0000    0.66450   0.57029   0.01031   Biso      1.000     C          -0.115503           
         C98       1.0000    0.07462   0.35278   0.82498   Biso      1.000     C          -0.232059           
         C99       1.0000    0.84898   0.41812   0.79932   Biso      1.000     C          -0.09457  
         C100      1.0000    0.17167   0.13267   0.69239   Biso      1.000     C          -0.237387           
         C101      1.0000    0.28179   0.33091   0.76211   Biso      1.000     C          -0.070204           
         C102      1.0000    0.47238   0.03449   0.60975   Biso      1.000     C          0.07175   
         C103      1.0000    0.77175   0.49773   0.86377   Biso      1.000     C          0.059801  
         C104      1.0000    0.53339   0.31800   0.97782   Biso      1.000     C          -0.014629           
         Cd1       1.0000    0.61723   0.79444   0.20802   Biso      1.000     Cd          0.855855  
         Cd2       1.0000    0.17475   0.20803   0.20555   Biso      1.000     Cd          0.855661  
         Cd3       1.0000    0.58834   0.79197   0.79444   Biso      1.000     Cd          0.85601   
         Cd4       1.0000    0.61969   0.20556   0.79197   Biso      1.000     Cd          0.856056  
         H1        1.0000    0.66430   0.23440   0.58880   Biso      1.000     H          0.109414  
         H2        1.0000    0.95670   0.45220   0.68200   Biso      1.000     H          0.283325  
         H3        1.0000    0.86860   0.36280   0.83420   Biso      1.000     H          0.115414  
         H4        1.0000    0.64750   0.78830   0.58370   Biso      1.000     H          0.105015  
         H5        1.0000    0.76720   0.43520   0.98480   Biso      1.000     H          0.121042  
         H6        1.0000    0.15430   0.27250   0.52370   Biso      1.000     H          0.120782  
         H7        1.0000    0.19290   0.28730   0.88410   Biso      1.000     H          0.118521  
         H8        1.0000    0.15450   0.43760   0.62120   Biso      1.000     H          0.120317  
         H9        1.0000    0.34970   0.20140   0.52480   Biso      1.000     H          0.265746  
         H10       1.0000    0.33290   0.38510   0.63610   Biso      1.000     H          0.110407  
         H11       1.0000    0.22310   0.09440   0.71980   Biso      1.000     H          0.118803  
         H12       1.0000    0.64130   0.56760   0.07320   Biso      1.000     H          0.121326  
         H13       1.0000    0.28200   0.36390   0.38510   Biso      1.000     H          0.11081   
         H14       1.0000    0.96340   0.28480   0.58720   Biso      1.000     H          0.111185  
         H15       1.0000    0.62230   0.87320   0.45960   Biso      1.000     H          0.12451   
         H16       1.0000    0.80510   0.41300   0.76720   Biso      1.000     H          0.123715  
         H17       1.0000    0.36460   0.14920   0.68740   Biso      1.000     H          0.109007  
         H18       1.0000    0.86280   0.22030   0.10570   Biso      1.000     H          0.118448  
         H19       1.0000    0.05710   0.71980   0.90560   Biso      1.000     H          0.11925   
         H20       1.0000    0.36130   0.68200   0.54780   Biso      1.000     H          0.284611  
         H21       1.0000    0.42770   0.76720   0.58700   Biso      1.000     H          0.122792  
         H22       1.0000    0.44940   0.58720   0.71520   Biso      1.000     H          0.111593  
         H23       1.0000    0.00990   0.34670   0.87370   Biso      1.000     H          0.121309  
         H24       1.0000    0.22430   0.62120   0.56240   Biso      1.000     H          0.121713  
         H25       1.0000    0.76880   0.58370   0.21170   Biso      1.000     H          0.106458  
         H26       1.0000    0.92300   0.88410   0.71270   Biso      1.000     H          0.118346  
         H27       1.0000    0.94800   0.68740   0.85080   Biso      1.000     H          0.107992  
         H28       1.0000    0.28550   0.07320   0.43240   Biso      1.000     H          0.121875  
         H29       1.0000    0.29720   0.83420   0.63720   Biso      1.000     H          0.115351  
         H30       1.0000    0.03100   0.63610   0.61490   Biso      1.000     H          0.112799  
         H31       1.0000    0.24800   0.98480   0.56480   Biso      1.000     H          0.121002  
         H32       1.0000    0.41920   0.00420   0.29660   Biso      1.000     H          0.098168  
         H33       1.0000    0.80650   0.73930   0.99630   Biso      1.000     H          0.106834  
         H34       1.0000    0.91810   0.45960   0.12680   Biso      1.000     H          0.124373  
         H35       1.0000    0.11640   0.87370   0.65330   Biso      1.000     H          0.125805  
         H36       1.0000    0.18880   0.77970   0.89430   Biso      1.000     H          0.118166  
         H37       1.0000    0.93450   0.60020   0.83580   Biso      1.000     H          0.112302  
         H38       1.0000    0.12550   0.52480   0.79860   Biso      1.000     H          0.266687  
         H39       1.0000    0.01210   0.47470   0.97110   Biso      1.000     H          0.112121  
         H40       1.0000    0.32200   0.52370   0.72750   Biso      1.000     H          0.120518  
         H41       1.0000    0.48750   0.76560   0.41120   Biso      1.000     H          0.110068  
         H42       1.0000    0.79110   0.92680   0.56760   Biso      1.000     H          0.1226    
         H43       1.0000    0.44890   0.47520   0.20140   Biso      1.000     H          0.266087  
         H44       1.0000    0.03150   0.10570   0.77970   Biso      1.000     H          0.118334  
         H45       1.0000    0.72000   0.99580   0.70340   Biso      1.000     H          0.09761   
         H46       1.0000    0.19720   0.99630   0.26070   Biso      1.000     H          0.106447  
         H47       1.0000    0.03730   0.90560   0.28020   Biso      1.000     H          0.119468  
         H48       1.0000    0.28210   0.43240   0.92680   Biso      1.000     H          0.122255  
         H49       1.0000    0.18720   0.56480   0.01520   Biso      1.000     H          0.120792  
         H50       1.0000    0.20120   0.85080   0.31260   Biso      1.000     H          0.109196  
         H51       1.0000    0.22970   0.83580   0.39980   Biso      1.000     H          0.114701  
         H52       1.0000    0.91690   0.89430   0.22030   Biso      1.000     H          0.117758  
         H53       1.0000    0.21330   0.56240   0.37880   Biso      1.000     H          0.120828  
         H54       1.0000    0.01950   0.21170   0.41630   Biso      1.000     H          0.104669  
         H55       1.0000    0.09090   0.54780   0.31800   Biso      1.000     H          0.284773  
         H56       1.0000    0.98530   0.58700   0.23280   Biso      1.000     H          0.121109  
         H57       1.0000    0.35410   0.61490   0.36390   Biso      1.000     H          0.110497  
         H58       1.0000    0.45790   0.52530   0.02890   Biso      1.000     H          0.112694  
         H59       1.0000    0.75180   0.41280   0.28480   Biso      1.000     H          0.112094  
         H60       1.0000    0.57320   0.47630   0.27250   Biso      1.000     H          0.120573  
         H61       1.0000    0.57660   0.70340   0.00420   Biso      1.000     H          0.097732  
         H62       1.0000    0.46530   0.16420   0.60020   Biso      1.000     H          0.115763  
         H63       1.0000    0.74690   0.58880   0.76560   Biso      1.000     H          0.108801  
         H64       1.0000    0.45420   0.00370   0.73930   Biso      1.000     H          0.10689   
         H65       1.0000    0.01680   0.97110   0.52530   Biso      1.000     H          0.111977  
         H66       1.0000    0.51320   0.02890   0.47470   Biso      1.000     H          0.112146  
         H67       1.0000    0.07590   0.79860   0.47520   Biso      1.000     H          0.266389  
         H68       1.0000    0.83540   0.71520   0.41280   Biso      1.000     H          0.111616  
         H69       1.0000    0.51980   0.11590   0.28730   Biso      1.000     H          0.118893  
         H70       1.0000    0.78190   0.23280   0.41300   Biso      1.000     H          0.12294   
         H71       1.0000    0.59110   0.31800   0.45220   Biso      1.000     H          0.285308  
         H72       1.0000    0.37050   0.39980   0.16420   Biso      1.000     H          0.11461   
         H73       1.0000    0.48620   0.31260   0.14920   Biso      1.000     H          0.108867  
         H74       1.0000    0.54210   0.26070   0.00370   Biso      1.000     H          0.106656  
         H75       1.0000    0.79760   0.01520   0.43520   Biso      1.000     H          0.118954  
         H76       1.0000    0.76860   0.16580   0.36280   Biso      1.000     H          0.115959  
         H77       1.0000    0.40790   0.37880   0.43760   Biso      1.000     H          0.121757  
         H78       1.0000    0.68250   0.28020   0.09440   Biso      1.000     H          0.121122  
         H79       1.0000    0.50450   0.54040   0.87320   Biso      1.000     H          0.125285  
         H80       1.0000    0.64340   0.12630   0.34670   Biso      1.000     H          0.121908  
         H81       1.0000    0.56420   0.41630   0.78830   Biso      1.000     H          0.105564  
         H82       1.0000    0.23030   0.65330   0.12630   Biso      1.000     H          0.1258    
         H83       1.0000    0.95510   0.12680   0.54040   Biso      1.000     H          0.124832  
         H84       1.0000    0.06560   0.63720   0.16580   Biso      1.000     H          0.113998  
         H85       1.0000    0.10130   0.41120   0.23440   Biso      1.000     H          0.10842   
         H86       1.0000    0.95050   0.72750   0.47630   Biso      1.000     H          0.120952  
         H87       1.0000    0.36430   0.71270   0.11590   Biso      1.000     H          0.118349  
         H88       1.0000    0.28420   0.29660   0.99580   Biso      1.000     H          0.098124  
         N1        1.0000    0.49597   0.42212   0.17814   Biso      1.000     N          -0.367725           
         N2        1.0000    0.65569   0.65953   0.87849   Biso      1.000     N          -0.210445           
         N3        1.0000    0.19371   0.34047   0.12151   Biso      1.000     N          -0.209263           
         N4        1.0000    0.08191   0.82186   0.42212   Biso      1.000     N          -0.366863           
         N5        1.0000    0.11318   0.11289   0.32635   Biso      1.000     N          -0.208311           
         N6        1.0000    0.11697   0.57372   0.26714   Biso      1.000     N          -0.365028           
         N7        1.0000    0.32589   0.17814   0.57788   Biso      1.000     N          -0.366508           
         N8        1.0000    0.95783   0.42628   0.73286   Biso      1.000     N          -0.361647           
         N9        1.0000    0.46582   0.87849   0.34047   Biso      1.000     N          -0.20695  
         N10       1.0000    0.30931   0.73286   0.57372   Biso      1.000     N          -0.36443  
         N11       1.0000    0.09623   0.57788   0.82186   Biso      1.000     N          -0.368113           
         N12       1.0000    0.77393   0.67365   0.11289   Biso      1.000     N          -0.20736  
         N13       1.0000    0.61589   0.26714   0.42628   Biso      1.000     N          -0.367222           
         N14       1.0000    0.68478   0.12151   0.65953   Biso      1.000     N          -0.207168           
         N15       1.0000    0.55242   0.88711   0.67365   Biso      1.000     N          -0.208302           
         N16       1.0000    0.56047   0.32635   0.88711   Biso      1.000     N          -0.208103           
         O1        1.0000    0.38524   0.79577   0.84935   Biso      1.000     O          -0.602382           
         O2        1.0000    0.75303   0.83096   0.76718   Biso      1.000     O          -0.594464           
         O3        1.0000    0.19827   0.27984   0.32222   Biso      1.000     O          -0.588643           
         O4        1.0000    0.76541   0.84935   0.20423   Biso      1.000     O          -0.602283           
         O5        1.0000    0.72636   0.74525   0.30651   Biso      1.000     O          -0.590533           
         O6        1.0000    0.47979   0.76718   0.16904   Biso      1.000     O          -0.589988           
         O7        1.0000    0.80033   0.72016   0.67778   Biso      1.000     O          -0.590537           
         O8        1.0000    0.03036   0.20423   0.15065   Biso      1.000     O          -0.601393           
         O9        1.0000    0.35117   0.16904   0.23282   Biso      1.000     O          -0.592624           
         O10       1.0000    0.96713   0.30651   0.25475   Biso      1.000     O          -0.588361           
         O11       1.0000    0.81899   0.15065   0.79577   Biso      1.000     O          -0.600761           
         O12       1.0000    0.77812   0.25475   0.69349   Biso      1.000     O          -0.590061           
         O13       1.0000    0.41601   0.23282   0.83096   Biso      1.000     O          -0.594988           
         O14       1.0000    0.47951   0.32222   0.72016   Biso      1.000     O          -0.588798           
         O15       1.0000    0.52189   0.67778   0.27984   Biso      1.000     O          -0.588258           
         O16       1.0000    0.52839   0.69349   0.74525   Biso      1.000     O          -0.589829 