
##########################################################################
#               Crystallographic Information Format file
#               Produced by PyCifRW module
#
#  This is a CIF file.  CIF has been adopted by the International
#  Union of Crystallography as the standard for data archiving and
#  transmission.
#
#  For information on this file format, follow the CIF links at
#  http://www.iucr.org
##########################################################################

data_image0

_cell_length_a                          8.9042
_cell_length_b                          12.8056
_cell_length_c                          12.8056
_cell_angle_alpha                       65.2022
_cell_angle_beta                        76.5981
_cell_angle_gamma                       103.402
_symmetry_space_group_name_H-M          'P 1'
_symmetry_int_tables_number             1
loop_
  _symmetry_equiv_pos_as_xyz
         'x, y, z' 
loop_
  _atom_site_label
  _atom_site_occupancy
  _atom_site_fract_x
  _atom_site_fract_y
  _atom_site_fract_z
  _atom_site_thermal_displace_type
  _atom_site_B_iso_or_equiv
  _atom_site_type_symbol
  _atom_site_charge
         C1        1.0000    0.09590   0.40240   0.75260   Biso      1.000     C          0.539092  
         C2        1.0000    0.30650   0.15500   0.59760   Biso      1.000     C          0.538678  
         C3        1.0000    0.23990   0.72400   0.75430   Biso      1.000     C          0.55309   
         C4        1.0000    0.69350   0.84500   0.40240   Biso      1.000     C          0.538888  
         C5        1.0000    0.00280   0.27900   0.18150   Biso      1.000     C          0.172279  
         C6        1.0000    0.00580   0.24570   0.47830   Biso      1.000     C          0.553322  
         C7        1.0000    0.51590   0.52170   0.72400   Biso      1.000     C          0.55432   
         C8        1.0000    0.15150   0.24740   0.15500   Biso      1.000     C          0.5388850000000001  
         C9        1.0000    0.84850   0.75260   0.84500   Biso      1.000     C          0.5390119999999999  
         C10       1.0000    0.18430   0.18150   0.53950   Biso      1.000     C          0.17058399999999999           
         C11       1.0000    0.90410   0.59760   0.24740   Biso      1.000     C          0.538998  
         C12       1.0000    0.72380   0.53950   0.27900   Biso      1.000     C          0.17169700000000002           
         C13       1.0000    0.81570   0.81850   0.46050   Biso      1.000     C          0.17137   
         C14       1.0000    0.48410   0.47830   0.27600   Biso      1.000     C          0.553243  
         C15       1.0000    0.76010   0.27600   0.24570   Biso      1.000     C          0.55305   
         C16       1.0000    0.99420   0.75430   0.52170   Biso      1.000     C          0.5543560000000001  
         C17       1.0000    0.99720   0.72100   0.81850   Biso      1.000     C          0.17190999999999998           
         C18       1.0000    0.27620   0.46050   0.72100   Biso      1.000     C          0.170733  
         Cu1       1.0000    0.73851   0.58044   0.47156   Biso      1.000     Cu          0.706422  
         Cu2       1.0000    0.21007   0.47156   0.94800   Biso      1.000     Cu          0.7027479999999999  
         Cu3       1.0000    0.15807   0.94800   0.58044   Biso      1.000     Cu          0.706201  
         Cu4       1.0000    0.26149   0.41956   0.52844   Biso      1.000     Cu          0.70155   
         Cu5       1.0000    0.78993   0.52844   0.05200   Biso      1.000     Cu          0.703824  
         Cu6       1.0000    0.84193   0.05200   0.41956   Biso      1.000     Cu          0.70585   
         H1        1.0000    0.44980   0.71900   0.72680   Biso      1.000     H          0.348597  
         H2        1.0000    0.82340   0.27320   0.44580   Biso      1.000     H          0.349321  
         H3        1.0000    0.38400   0.48730   0.16260   Biso      1.000     H          0.364061  
         H4        1.0000    0.26920   0.44580   0.28100   Biso      1.000     H          0.349041  
         H5        1.0000    0.89670   0.35010   0.48730   Biso      1.000     H          0.36437800000000004           
         H6        1.0000    0.54660   0.16260   0.35010   Biso      1.000     H          0.362277  
         H7        1.0000    0.61600   0.51270   0.83740   Biso      1.000     H          0.363923  
         H8        1.0000    0.45340   0.83740   0.64990   Biso      1.000     H          0.36222600000000005           
         H9        1.0000    0.10330   0.64990   0.51270   Biso      1.000     H          0.364336  
         H10       1.0000    0.17660   0.72680   0.55420   Biso      1.000     H          0.349235  
         H11       1.0000    0.55020   0.28100   0.27320   Biso      1.000     H          0.348675  
         H12       1.0000    0.73080   0.55420   0.71900   Biso      1.000     H          0.349186  
         N1        1.0000    0.35766   0.44296   0.24018   Biso      1.000     N          -0.740841           
         N2        1.0000    0.15318   0.61582   0.85888   Biso      1.000     N          -0.308211           
         N3        1.0000    0.86997   0.72360   0.48329   Biso      1.000     N          -0.422447           
         N4        1.0000    0.08530   0.68314   0.55704   Biso      1.000     N          -0.74156  
         N5        1.0000    0.91470   0.31686   0.44296   Biso      1.000     N          -0.741217           
         N6        1.0000    0.89497   0.89942   0.48571   Biso      1.000     N          -0.19634400000000002          
         N7        1.0000    0.40216   0.75982   0.68314   Biso      1.000     N          -0.739472           
         N8        1.0000    0.64234   0.55704   0.75982   Biso      1.000     N          -0.740853           
         N9        1.0000    0.61932   0.51429   0.38513   Biso      1.000     N          -0.19458  
         N10       1.0000    0.10503   0.10058   0.51429   Biso      1.000     N          -0.195175           
         N11       1.0000    0.84682   0.38418   0.14112   Biso      1.000     N          -0.30782800000000005          
         N12       1.0000    0.14637   0.79311   0.72360   Biso      1.000     N          -0.422515           
         N13       1.0000    0.38068   0.48571   0.61487   Biso      1.000     N          -0.19017  
         N14       1.0000    0.00445   0.38513   0.10058   Biso      1.000     N          -0.19279300000000002          
         N15       1.0000    0.46264   0.47470   0.38418   Biso      1.000     N          -0.304779           
         N16       1.0000    0.99555   0.61487   0.89942   Biso      1.000     N          -0.19353399999999998          
         N17       1.0000    0.85363   0.20689   0.27640   Biso      1.000     N          -0.421804           
         N18       1.0000    0.98794   0.14112   0.47470   Biso      1.000     N          -0.303539           
         N19       1.0000    0.01206   0.85888   0.52530   Biso      1.000     N          -0.304923           
         N20       1.0000    0.13003   0.27640   0.51671   Biso      1.000     N          -0.417946           
         N21       1.0000    0.35326   0.48329   0.79311   Biso      1.000     N          -0.41956899999999997          
         N22       1.0000    0.59784   0.24018   0.31686   Biso      1.000     N          -0.739388           
         N23       1.0000    0.64674   0.51671   0.20689   Biso      1.000     N          -0.42017299999999996          
         N24       1.0000    0.53736   0.52530   0.61582   Biso      1.000     N          -0.30813  
         O1        1.0000    0.00454   0.62506   0.14724   Biso      1.000     O          -0.494331           
         O2        1.0000    0.73163   0.66798   0.94809   Biso      1.000     O          -0.527526           
         O3        1.0000    0.37948   0.22770   0.62506   Biso      1.000     O          -0.491059           
         O4        1.0000    0.62052   0.77230   0.37494   Biso      1.000     O          -0.490745           
         O5        1.0000    0.15178   0.14724   0.22770   Biso      1.000     O          -0.49061099999999996          
         O6        1.0000    0.06365   0.38393   0.66798   Biso      1.000     O          -0.5275270000000001           
         O7        1.0000    0.93635   0.61607   0.33202   Biso      1.000     O          -0.528666           
         O8        1.0000    0.84822   0.85276   0.77230   Biso      1.000     O          -0.48994399999999994          
         O9        1.0000    0.99546   0.37494   0.85276   Biso      1.000     O          -0.494148           
         O10       1.0000    0.67972   0.94809   0.38393   Biso      1.000     O          -0.528245           
         O11       1.0000    0.32028   0.05191   0.61607   Biso      1.000     O          -0.526908           
         O12       1.0000    0.26837   0.33202   0.05191   Biso      1.000     O          -0.527853 