
##########################################################################
#               Crystallographic Information Format file
#               Produced by PyCifRW module
#
#  This is a CIF file.  CIF has been adopted by the International
#  Union of Crystallography as the standard for data archiving and
#  transmission.
#
#  For information on this file format, follow the CIF links at
#  http://www.iucr.org
##########################################################################

data_image0

_cell_length_a                          6.6579
_cell_length_b                          15.2582
_cell_length_c                          15.2582
_cell_angle_alpha                       120
_cell_angle_beta                        90
_cell_angle_gamma                       90
_symmetry_space_group_name_H-M          'P 1'
_symmetry_int_tables_number             1
loop_
  _symmetry_equiv_pos_as_xyz
         'x, y, z' 
loop_
  _atom_site_label
  _atom_site_occupancy
  _atom_site_fract_x
  _atom_site_fract_y
  _atom_site_fract_z
  _atom_site_thermal_displace_type
  _atom_site_B_iso_or_equiv
  _atom_site_type_symbol
  _atom_site_charge
         Br1       1.0000    0.71304   0.06273   0.89094   Biso      1.000     Br          -0.35320999999999997          
         Br2       1.0000    0.71304   0.82821   0.93727   Biso      1.000     Br          -0.35320999999999997          
         Br3       1.0000    0.48980   0.66667   0.33334   Biso      1.000     Br          -0.354441           
         Br4       1.0000    0.22160   0.00000   0.00000   Biso      1.000     Br          -0.34155399999999997          
         Br5       1.0000    0.98873   0.53893   0.16420   Biso      1.000     Br          -0.378726           
         Br6       1.0000    0.98873   0.62527   0.46107   Biso      1.000     Br          -0.37878  
         Br7       1.0000    0.98873   0.83580   0.37473   Biso      1.000     Br          -0.378759           
         Br8       1.0000    0.71304   0.10906   0.17179   Biso      1.000     Br          -0.353213           
         C1        1.0000    0.17890   0.28560   0.13540   Biso      1.000     C          -0.175736           
         C2        1.0000    0.56510   0.50410   0.88490   Biso      1.000     C          -0.37162399999999995          
         C3        1.0000    0.29290   0.61520   0.81500   Biso      1.000     C          -0.380337           
         C4        1.0000    0.44400   0.60790   0.06680   Biso      1.000     C          -0.139824           
         C5        1.0000    0.29290   0.19980   0.38480   Biso      1.000     C          -0.380337           
         C6        1.0000    0.34480   0.10710   0.35430   Biso      1.000     C          -0.019204           
         C7        1.0000    0.54150   0.59580   0.96980   Biso      1.000     C          -0.008169           
         C8        1.0000    0.25260   0.03510   0.26080   Biso      1.000     C          -0.123071           
         C9        1.0000    0.06700   0.68300   0.02810   Biso      1.000     C          -0.5224439999999999           
         C10       1.0000    0.45390   0.89230   0.25390   Biso      1.000     C          -0.120924           
         C11       1.0000    0.54750   0.79360   0.17800   Biso      1.000     C          -0.120234           
         C12       1.0000    0.25310   0.75650   0.08020   Biso      1.000     C          0.127647  
         C13       1.0000    0.17890   0.86460   0.15020   Biso      1.000     C          -0.175735           
         C14       1.0000    0.56510   0.11510   0.61920   Biso      1.000     C          -0.371625           
         C15       1.0000    0.25310   0.32370   0.24350   Biso      1.000     C          0.127646  
         C16       1.0000    0.54750   0.38440   0.20640   Biso      1.000     C          -0.120235           
         C17       1.0000    0.34480   0.24720   0.89290   Biso      1.000     C          -0.019249000000000002         
         C18       1.0000    0.06700   0.34510   0.31700   Biso      1.000     C          -0.522443           
         C19       1.0000    0.25260   0.22570   0.96490   Biso      1.000     C          -0.12306700000000001          
         C20       1.0000    0.54150   0.03020   0.62600   Biso      1.000     C          -0.008169           
         C21       1.0000    0.29290   0.18500   0.80020   Biso      1.000     C          -0.380293           
         C22       1.0000    0.44400   0.45890   0.39210   Biso      1.000     C          -0.139822           
         C23       1.0000    0.54150   0.37400   0.40420   Biso      1.000     C          -0.008178           
         C24       1.0000    0.56510   0.38080   0.49590   Biso      1.000     C          -0.371618           
         C25       1.0000    0.34480   0.64570   0.75280   Biso      1.000     C          -0.019204           
         C26       1.0000    0.25260   0.73920   0.77430   Biso      1.000     C          -0.123071           
         C27       1.0000    0.06700   0.97190   0.65490   Biso      1.000     C          -0.5224439999999999           
         C28       1.0000    0.45390   0.74610   0.63840   Biso      1.000     C          -0.120925           
         C29       1.0000    0.54750   0.82200   0.61560   Biso      1.000     C          -0.12023299999999999          
         C30       1.0000    0.25310   0.91980   0.67630   Biso      1.000     C          0.127646  
         C31       1.0000    0.17890   0.84980   0.71440   Biso      1.000     C          -0.175736           
         C32       1.0000    0.45390   0.36160   0.10770   Biso      1.000     C          -0.120924           
         C33       1.0000    0.44400   0.93320   0.54110   Biso      1.000     C          -0.139824           
         Cu1       1.0000    0.51160   0.91582   0.86431   Biso      1.000     Cu          0.209409  
         Cu2       1.0000    0.87310   0.66667   0.33334   Biso      1.000     Cu          0.21997199999999997           
         Cu3       1.0000    0.85710   0.00000   0.00000   Biso      1.000     Cu          0.22019899999999998           
         Cu4       1.0000    0.21649   0.53063   0.28821   Biso      1.000     Cu          0.22094699999999998           
         Cu5       1.0000    0.51160   0.13569   0.05151   Biso      1.000     Cu          0.209414  
         Cu6       1.0000    0.21649   0.71179   0.24242   Biso      1.000     Cu          0.220933  
         Cu7       1.0000    0.51160   0.94849   0.08418   Biso      1.000     Cu          0.209412  
         Cu8       1.0000    0.21649   0.75758   0.46937   Biso      1.000     Cu          0.220969  
         H1        1.0000    0.62470   0.32800   0.50030   Biso      1.000     H          0.160913  
         H2        1.0000    0.52160   0.43830   0.55430   Biso      1.000     H          0.151868  
         H3        1.0000    0.58590   0.31590   0.34660   Biso      1.000     H          0.095457  
         H4        1.0000    0.32910   0.48640   0.43680   Biso      1.000     H          0.11993599999999999           
         H5        1.0000    0.53980   0.51310   0.40950   Biso      1.000     H          0.12324700000000001           
         H6        1.0000    0.34490   0.19270   0.74790   Biso      1.000     H          0.142093  
         H7        1.0000    0.20360   0.13260   0.78600   Biso      1.000     H          0.15632100000000002           
         H8        1.0000    0.43350   0.30060   0.91090   Biso      1.000     H          0.096226  
         H9        1.0000    0.11710   0.25260   0.97610   Biso      1.000     H          0.10770899999999999           
         H10       1.0000    0.99810   0.40490   0.32750   Biso      1.000     H          0.153925  
         H11       1.0000    0.33500   0.75660   0.02680   Biso      1.000     H          0.044342  
         H12       1.0000    0.09560   0.86620   0.20310   Biso      1.000     H          0.095239  
         H13       1.0000    0.09790   0.88660   0.11190   Biso      1.000     H          0.11225999999999998           
         H14       1.0000    0.62470   0.17230   0.67200   Biso      1.000     H          0.160916  
         H15       1.0000    0.52160   0.11600   0.56170   Biso      1.000     H          0.151869  
         H16       1.0000    0.58590   0.03070   0.68410   Biso      1.000     H          0.095456  
         H17       1.0000    0.32910   0.95040   0.51360   Biso      1.000     H          0.11993499999999999           
         H18       1.0000    0.53980   0.89640   0.48690   Biso      1.000     H          0.12324600000000001           
         H19       1.0000    0.34490   0.55520   0.80730   Biso      1.000     H          0.142097  
         H20       1.0000    0.20360   0.65340   0.86740   Biso      1.000     H          0.156323  
         H21       1.0000    0.43350   0.61030   0.69940   Biso      1.000     H          0.09622   
         H22       1.0000    0.24050   0.15280   0.93300   Biso      1.000     H          0.10584   
         H23       1.0000    0.11710   0.72350   0.74740   Biso      1.000     H          0.10770899999999999           
         H24       1.0000    0.99810   0.92260   0.59510   Biso      1.000     H          0.153923  
         H25       1.0000    0.97670   0.99860   0.71150   Biso      1.000     H          0.162329  
         H26       1.0000    0.11410   0.02590   0.64520   Biso      1.000     H          0.161903  
         H27       1.0000    0.55650   0.70360   0.64340   Biso      1.000     H          0.109878  
         H28       1.0000    0.36040   0.70320   0.58540   Biso      1.000     H          0.095502  
         H29       1.0000    0.64270   0.78940   0.56030   Biso      1.000     H          0.11166   
         H30       1.0000    0.61700   0.87410   0.67450   Biso      1.000     H          0.098107  
         H31       1.0000    0.33500   0.97320   0.72980   Biso      1.000     H          0.044341000000000005          
         H32       1.0000    0.09560   0.79690   0.66310   Biso      1.000     H          0.09523999999999999           
         H33       1.0000    0.09790   0.88810   0.77470   Biso      1.000     H          0.11225999999999998           
         H34       1.0000    0.24050   0.78020   0.84720   Biso      1.000     H          0.10584   
         H35       1.0000    0.61700   0.80040   0.12590   Biso      1.000     H          0.098107  
         H36       1.0000    0.64270   0.77090   0.21060   Biso      1.000     H          0.11165699999999999           
         H37       1.0000    0.36040   0.88220   0.29680   Biso      1.000     H          0.09550299999999999           
         H38       1.0000    0.97670   0.28850   0.28710   Biso      1.000     H          0.162329  
         H39       1.0000    0.11410   0.35480   0.38070   Biso      1.000     H          0.161904  
         H40       1.0000    0.55650   0.35660   0.06020   Biso      1.000     H          0.10987899999999999           
         H41       1.0000    0.36040   0.41460   0.11780   Biso      1.000     H          0.095501  
         H42       1.0000    0.64270   0.43970   0.22910   Biso      1.000     H          0.11165599999999999           
         H43       1.0000    0.61700   0.32550   0.19960   Biso      1.000     H          0.098107  
         H44       1.0000    0.33500   0.27020   0.24340   Biso      1.000     H          0.044342  
         H45       1.0000    0.09560   0.33690   0.13380   Biso      1.000     H          0.095238  
         H46       1.0000    0.09790   0.22530   0.11340   Biso      1.000     H          0.11225999999999998           
         H47       1.0000    0.62470   0.49970   0.82770   Biso      1.000     H          0.160917  
         H48       1.0000    0.52160   0.44570   0.88400   Biso      1.000     H          0.151868  
         H49       1.0000    0.58590   0.65340   0.96930   Biso      1.000     H          0.095457  
         H50       1.0000    0.32910   0.56320   0.04960   Biso      1.000     H          0.11993399999999999           
         H51       1.0000    0.53980   0.59050   0.10360   Biso      1.000     H          0.123243  
         H52       1.0000    0.34490   0.25210   0.44480   Biso      1.000     H          0.142099  
         H53       1.0000    0.20360   0.21400   0.34660   Biso      1.000     H          0.156323  
         H54       1.0000    0.43350   0.08910   0.38970   Biso      1.000     H          0.09622   
         H55       1.0000    0.11710   0.02390   0.27650   Biso      1.000     H          0.10770899999999999           
         H56       1.0000    0.24050   0.06700   0.21980   Biso      1.000     H          0.10584   
         H57       1.0000    0.99810   0.67250   0.07740   Biso      1.000     H          0.153924  
         H58       1.0000    0.97670   0.71290   0.00140   Biso      1.000     H          0.162329  
         H59       1.0000    0.11410   0.61930   0.97410   Biso      1.000     H          0.161904  
         H60       1.0000    0.55650   0.93980   0.29640   Biso      1.000     H          0.10987899999999999           
         N1        1.0000    0.37610   0.72030   0.13350   Biso      1.000     N          -0.10253499999999999          
         N2        1.0000    0.34650   0.93180   0.19470   Biso      1.000     N          -0.06141799999999999          
         N3        1.0000    0.34650   0.26290   0.06820   Biso      1.000     N          -0.06141799999999999          
         N4        1.0000    0.34650   0.80530   0.73710   Biso      1.000     N          -0.061416           
         N5        1.0000    0.37610   0.86650   0.58680   Biso      1.000     N          -0.102538           
         N6        1.0000    0.37610   0.41320   0.27970   Biso      1.000     N          -0.10253499999999999 