
##########################################################################
#               Crystallographic Information Format file
#               Produced by PyCifRW module
#
#  This is a CIF file.  CIF has been adopted by the International
#  Union of Crystallography as the standard for data archiving and
#  transmission.
#
#  For information on this file format, follow the CIF links at
#  http://www.iucr.org
##########################################################################

data_image0

_cell_length_a                          10.223
_cell_length_b                          10.223
_cell_length_c                          14.493
_cell_angle_alpha                       90
_cell_angle_beta                        90
_cell_angle_gamma                       90
_symmetry_space_group_name_H-M          'P 1'
_symmetry_int_tables_number             1
loop_
  _symmetry_equiv_pos_as_xyz
         'x, y, z' 
loop_
  _atom_site_label
  _atom_site_occupancy
  _atom_site_fract_x
  _atom_site_fract_y
  _atom_site_fract_z
  _atom_site_thermal_displace_type
  _atom_site_B_iso_or_equiv
  _atom_site_type_symbol
  _atom_site_charge
         C1        1.0000    0.45100   0.24500   0.07860   Biso      1.000     C          -0.032923           
         C2        1.0000    0.24500   0.54900   0.82860   Biso      1.000     C          -0.032923           
         C3        1.0000    0.10600   0.54700   0.82790   Biso      1.000     C          -0.096664           
         C4        1.0000    0.75500   0.45100   0.32860   Biso      1.000     C          -0.032923           
         C5        1.0000    0.89400   0.45300   0.32790   Biso      1.000     C          -0.096664           
         C6        1.0000    0.67400   0.41100   0.40700   Biso      1.000     C          0.662121  
         C7        1.0000    0.54900   0.75500   0.57860   Biso      1.000     C          -0.032923           
         C8        1.0000    0.54700   0.89400   0.57790   Biso      1.000     C          -0.096664           
         C9        1.0000    0.58900   0.67400   0.65700   Biso      1.000     C          0.662121  
         C10       1.0000    0.45300   0.10600   0.07790   Biso      1.000     C          -0.096664           
         C11       1.0000    0.41100   0.32600   0.15700   Biso      1.000     C          0.662121  
         C12       1.0000    0.58900   0.32600   0.84300   Biso      1.000     C          0.662121  
         C13       1.0000    0.69400   0.50000   0.25000   Biso      1.000     C          -0.12582100000000002          
         C14       1.0000    0.11400   0.50000   0.25000   Biso      1.000     C          0.652841  
         C15       1.0000    0.30600   0.50000   0.75000   Biso      1.000     C          -0.12582100000000002          
         C16       1.0000    0.04300   0.50000   0.75000   Biso      1.000     C          -0.042102           
         C17       1.0000    0.88600   0.50000   0.75000   Biso      1.000     C          0.652841  
         C18       1.0000    0.50000   0.69400   0.50000   Biso      1.000     C          -0.12582100000000002          
         C19       1.0000    0.50000   0.95700   0.50000   Biso      1.000     C          -0.042102           
         C20       1.0000    0.50000   0.11400   0.50000   Biso      1.000     C          0.652841  
         C21       1.0000    0.50000   0.30600   0.00000   Biso      1.000     C          -0.12582100000000002          
         C22       1.0000    0.50000   0.04300   0.00000   Biso      1.000     C          -0.042102           
         C23       1.0000    0.50000   0.88600   0.00000   Biso      1.000     C          0.652841  
         C24       1.0000    0.95700   0.50000   0.25000   Biso      1.000     C          -0.042102           
         C25       1.0000    0.54700   0.10600   0.92210   Biso      1.000     C          -0.096664           
         C26       1.0000    0.32600   0.58900   0.90700   Biso      1.000     C          0.6621199999999999  
         C27       1.0000    0.41100   0.67400   0.34300   Biso      1.000     C          0.662121  
         C28       1.0000    0.45300   0.89400   0.42210   Biso      1.000     C          -0.096664           
         C29       1.0000    0.45100   0.75500   0.42140   Biso      1.000     C          -0.032923           
         C30       1.0000    0.32600   0.41100   0.59300   Biso      1.000     C          0.662121  
         C31       1.0000    0.10600   0.45300   0.67210   Biso      1.000     C          -0.096664           
         C32       1.0000    0.24500   0.45100   0.67140   Biso      1.000     C          -0.032923           
         C33       1.0000    0.67400   0.58900   0.09300   Biso      1.000     C          0.662121  
         C34       1.0000    0.89400   0.54700   0.17210   Biso      1.000     C          -0.096664           
         C35       1.0000    0.75500   0.54900   0.17140   Biso      1.000     C          -0.032923           
         C36       1.0000    0.54900   0.24500   0.92140   Biso      1.000     C          -0.032923           
         H1        1.0000    0.94160   0.57570   0.12140   Biso      1.000     H          0.131649  
         H2        1.0000    0.05840   0.42430   0.62140   Biso      1.000     H          0.131649  
         H3        1.0000    0.42430   0.94160   0.37140   Biso      1.000     H          0.131649  
         H4        1.0000    0.57570   0.05840   0.87140   Biso      1.000     H          0.131649  
         H5        1.0000    0.05840   0.57570   0.87860   Biso      1.000     H          0.131649  
         H6        1.0000    0.57570   0.94160   0.62860   Biso      1.000     H          0.131649  
         H7        1.0000    0.94160   0.42430   0.37860   Biso      1.000     H          0.131649  
         H8        1.0000    0.60320   0.50000   0.25000   Biso      1.000     H          0.103123  
         H9        1.0000    0.39680   0.50000   0.75000   Biso      1.000     H          0.103122  
         H10       1.0000    0.50000   0.60320   0.50000   Biso      1.000     H          0.103122  
         H11       1.0000    0.50000   0.39680   0.00000   Biso      1.000     H          0.103122  
         H12       1.0000    0.42430   0.05840   0.12860   Biso      1.000     H          0.131649  
         O1        1.0000    0.42210   0.83540   0.05750   Biso      1.000     O          -0.616451           
         O2        1.0000    0.26100   0.59480   0.98560   Biso      1.000     O          -0.6716   
         O3        1.0000    0.43900   0.61600   0.89800   Biso      1.000     O          -0.604459           
         O4        1.0000    0.83540   0.42210   0.69250   Biso      1.000     O          -0.616451           
         O5        1.0000    0.73900   0.40520   0.48560   Biso      1.000     O          -0.6716   
         O6        1.0000    0.40520   0.26100   0.23560   Biso      1.000     O          -0.6716   
         O7        1.0000    0.16460   0.57790   0.19250   Biso      1.000     O          -0.616451           
         O8        1.0000    0.42210   0.16460   0.44250   Biso      1.000     O          -0.616451           
         O9        1.0000    0.61600   0.56100   0.64800   Biso      1.000     O          -0.604459           
         O10       1.0000    0.61600   0.43900   0.85200   Biso      1.000     O          -0.604459           
         O11       1.0000    0.59480   0.73900   0.73560   Biso      1.000     O          -0.6716   
         O12       1.0000    0.56100   0.38400   0.39800   Biso      1.000     O          -0.604459           
         O13       1.0000    0.59480   0.26100   0.76440   Biso      1.000     O          -0.6716   
         O14       1.0000    0.57790   0.83540   0.94250   Biso      1.000     O          -0.616451           
         O15       1.0000    0.38400   0.56100   0.35200   Biso      1.000     O          -0.604459           
         O16       1.0000    0.40520   0.73900   0.26440   Biso      1.000     O          -0.6716   
         O17       1.0000    0.83540   0.57790   0.80750   Biso      1.000     O          -0.616451           
         O18       1.0000    0.43900   0.38400   0.60200   Biso      1.000     O          -0.604459           
         O19       1.0000    0.26100   0.40520   0.51440   Biso      1.000     O          -0.6716   
         O20       1.0000    0.16460   0.42210   0.30750   Biso      1.000     O          -0.616451           
         O21       1.0000    0.56100   0.61600   0.10200   Biso      1.000     O          -0.604459           
         O22       1.0000    0.73900   0.59480   0.01440   Biso      1.000     O          -0.6716   
         O23       1.0000    0.38400   0.43900   0.14800   Biso      1.000     O          -0.604459           
         O24       1.0000    0.57790   0.16460   0.55750   Biso      1.000     O          -0.616451           
         Y1        1.0000    0.65023   0.34977   0.62500   Biso      1.000     Y          1.8686169999999998  
         Y2        1.0000    0.34977   0.65023   0.12500   Biso      1.000     Y          1.868616  
         Y3        1.0000    0.34977   0.34977   0.37500   Biso      1.000     Y          1.868616  
         Y4        1.0000    0.65023   0.65023   0.87500   Biso      1.000     Y          1.8686169999999998 