
##########################################################################
#               Crystallographic Information Format file
#               Produced by PyCifRW module
#
#  This is a CIF file.  CIF has been adopted by the International
#  Union of Crystallography as the standard for data archiving and
#  transmission.
#
#  For information on this file format, follow the CIF links at
#  http://www.iucr.org
##########################################################################

data_image0

_cell_length_a                          7.2453
_cell_length_b                          9.4218
_cell_length_c                          14.0917
_cell_angle_alpha                       78.3139
_cell_angle_beta                        75.1034
_cell_angle_gamma                       67.3876
_symmetry_space_group_name_H-M          'P 1'
_symmetry_int_tables_number             1
loop_
  _symmetry_equiv_pos_as_xyz
         'x, y, z' 
loop_
  _atom_site_label
  _atom_site_occupancy
  _atom_site_fract_x
  _atom_site_fract_y
  _atom_site_fract_z
  _atom_site_thermal_displace_type
  _atom_site_B_iso_or_equiv
  _atom_site_type_symbol
  _atom_site_charge
         C1        1.0000    0.80600   0.08090   0.53470   Biso      1.000     C          0.066623  
         C2        1.0000    0.22920   0.01690   0.80450   Biso      1.000     C          0.582094  
         C3        1.0000    0.10890   0.01290   0.90890   Biso      1.000     C          0.094694  
         C4        1.0000    0.20120   0.92620   0.98780   Biso      1.000     C          0.07674600000000001           
         C5        1.0000    0.85920   0.99480   0.45640   Biso      1.000     C          0.08705299999999999           
         C6        1.0000    0.58720   0.17970   0.57350   Biso      1.000     C          0.572059  
         C7        1.0000    0.05060   0.48310   0.69550   Biso      1.000     C          0.58101   
         C8        1.0000    0.03070   0.48710   0.59110   Biso      1.000     C          0.095096  
         C9        1.0000    0.11520   0.57380   0.51220   Biso      1.000     C          0.074808  
         C10       1.0000    0.31040   0.50520   0.04360   Biso      1.000     C          0.08506699999999999           
         C11       1.0000    0.42160   0.41910   0.96530   Biso      1.000     C          0.06693500000000001           
         C12       1.0000    0.77080   0.98310   0.19550   Biso      1.000     C          0.582094  
         C13       1.0000    0.89110   0.98710   0.09110   Biso      1.000     C          0.094694  
         C14       1.0000    0.79880   0.07380   0.01220   Biso      1.000     C          0.07674500000000001           
         C15       1.0000    0.14080   0.00520   0.54360   Biso      1.000     C          0.08705299999999999           
         C16       1.0000    0.41280   0.82030   0.42650   Biso      1.000     C          0.572059  
         C17       1.0000    0.34040   0.32030   0.92650   Biso      1.000     C          0.571498  
         C18       1.0000    0.94940   0.51690   0.30450   Biso      1.000     C          0.58101   
         C19       1.0000    0.96930   0.51290   0.40890   Biso      1.000     C          0.095096  
         C20       1.0000    0.88480   0.42620   0.48780   Biso      1.000     C          0.074808  
         C21       1.0000    0.68960   0.49480   0.95640   Biso      1.000     C          0.08506699999999999           
         C22       1.0000    0.65960   0.67970   0.07350   Biso      1.000     C          0.571498  
         C23       1.0000    0.57840   0.58090   0.03470   Biso      1.000     C          0.06693400000000001           
         C24       1.0000    0.19400   0.91910   0.46530   Biso      1.000     C          0.066623  
         H1        1.0000    0.80470   0.37680   0.47640   Biso      1.000     H          0.106302  
         H2        1.0000    0.24270   0.00650   0.57190   Biso      1.000     H          0.126588  
         H3        1.0000    0.65790   0.12320   0.02360   Biso      1.000     H          0.10565799999999999           
         H4        1.0000    0.82110   0.49350   0.92810   Biso      1.000     H          0.12779200000000002           
         H5        1.0000    0.19530   0.62320   0.52360   Biso      1.000     H          0.106302  
         H6        1.0000    0.75730   0.99350   0.42810   Biso      1.000     H          0.126588  
         H7        1.0000    0.34210   0.87680   0.97640   Biso      1.000     H          0.10565799999999999           
         H8        1.0000    0.17890   0.50650   0.07190   Biso      1.000     H          0.12779200000000002           
         N1        1.0000    0.09313   0.91224   0.07890   Biso      1.000     N          -0.274635           
         N2        1.0000    0.38860   0.58609   0.07931   Biso      1.000     N          -0.269059           
         N3        1.0000    0.08427   0.58776   0.42110   Biso      1.000     N          -0.273588           
         N4        1.0000    0.05400   0.91391   0.42069   Biso      1.000     N          -0.270221           
         N5        1.0000    0.61140   0.41391   0.92069   Biso      1.000     N          -0.269059           
         N6        1.0000    0.91573   0.41224   0.57890   Biso      1.000     N          -0.273588           
         N7        1.0000    0.94600   0.08609   0.57931   Biso      1.000     N          -0.270221           
         N8        1.0000    0.90687   0.08776   0.92110   Biso      1.000     N          -0.274635           
         O1        1.0000    0.46579   0.24149   0.85773   Biso      1.000     O          -0.6173350000000001           
         O2        1.0000    0.16792   0.31894   0.96282   Biso      1.000     O          -0.47764399999999996          
         O3        1.0000    0.15056   0.55596   0.70932   Biso      1.000     O          -0.511228           
         O4        1.0000    0.56501   0.25851   0.64227   Biso      1.000     O          -0.616794           
         O5        1.0000    0.44968   0.18106   0.53718   Biso      1.000     O          -0.477813           
         O6        1.0000    0.87519   0.91151   0.26111   Biso      1.000     O          -0.5956319999999999           
         O7        1.0000    0.95219   0.41151   0.76111   Biso      1.000     O          -0.594661           
         O8        1.0000    0.58416   0.05596   0.20932   Biso      1.000     O          -0.5111939999999999           
         O9        1.0000    0.12481   0.08849   0.73889   Biso      1.000     O          -0.5956319999999999           
         O10       1.0000    0.43499   0.74149   0.35773   Biso      1.000     O          -0.616794           
         O11       1.0000    0.04781   0.58849   0.23889   Biso      1.000     O          -0.594661           
         O12       1.0000    0.84944   0.44404   0.29068   Biso      1.000     O          -0.511228           
         O13       1.0000    0.83208   0.68106   0.03718   Biso      1.000     O          -0.47764399999999996          
         O14       1.0000    0.53421   0.75851   0.14227   Biso      1.000     O          -0.6173350000000001           
         O15       1.0000    0.41584   0.94404   0.79068   Biso      1.000     O          -0.5111939999999999           
         O16       1.0000    0.55032   0.81894   0.46282   Biso      1.000     O          -0.477813           
         Th1       1.0000    0.77280   0.25000   0.75000   Biso      1.000     Th          2.0697799999999997  
         Th2       1.0000    0.22720   0.75000   0.25000   Biso      1.000     Th          2.0697799999999997 