
##########################################################################
#               Crystallographic Information Format file
#               Produced by PyCifRW module
#
#  This is a CIF file.  CIF has been adopted by the International
#  Union of Crystallography as the standard for data archiving and
#  transmission.
#
#  For information on this file format, follow the CIF links at
#  http://www.iucr.org
##########################################################################

data_image0

_cell_length_a                          13.13
_cell_length_b                          13.7619
_cell_length_c                          13.8592
_cell_angle_alpha                       114.002
_cell_angle_beta                        112.312
_cell_angle_gamma                       100.919
_symmetry_space_group_name_H-M          'P 1'
_symmetry_int_tables_number             1
loop_
  _symmetry_equiv_pos_as_xyz
         'x, y, z' 
loop_
  _atom_site_label
  _atom_site_occupancy
  _atom_site_fract_x
  _atom_site_fract_y
  _atom_site_fract_z
  _atom_site_thermal_displace_type
  _atom_site_B_iso_or_equiv
  _atom_site_type_symbol
  _atom_site_charge
         C1        1.0000    0.25547   0.31977   0.89334   Biso      1.000     C          0.0885    
         C2        1.0000    0.45388   0.82274   0.58142   Biso      1.000     C          0.094843  
         C3        1.0000    0.62754   0.75868   0.58142   Biso      1.000     C          0.09630599999999999           
         C4        1.0000    0.37342   0.12948   0.10056   Biso      1.000     C          0.093912  
         C5        1.0000    0.62242   0.37205   0.98458   Biso      1.000     C          0.078198  
         C6        1.0000    0.86213   0.42643   0.10666   Biso      1.000     C          0.089763  
         C7        1.0000    0.86216   0.61253   0.98458   Biso      1.000     C          0.079047  
         C8        1.0000    0.74259   0.55229   0.19276   Biso      1.000     C          0.08670800000000001           
         C9        1.0000    0.62658   0.87052   0.89944   Biso      1.000     C          0.093913  
         C10       1.0000    0.13784   0.38747   0.01542   Biso      1.000     C          0.07905   
         C11       1.0000    0.95017   0.64047   0.19276   Biso      1.000     C          0.086895  
         C12       1.0000    0.61736   0.49634   0.88672   Biso      1.000     C          0.06447699999999999           
         C13       1.0000    0.74453   0.68023   0.10666   Biso      1.000     C          0.088499  
         C14       1.0000    0.37246   0.24132   0.41858   Biso      1.000     C          0.09630599999999999           
         C15       1.0000    0.77084   0.82436   0.80100   Biso      1.000     C          0.066987  
         C16       1.0000    0.25741   0.44771   0.80724   Biso      1.000     C          0.08670900000000001           
         C17       1.0000    0.48709   0.30067   0.31356   Biso      1.000     C          0.065289  
         C18       1.0000    0.53016   0.97664   0.80100   Biso      1.000     C          0.069262  
         C19       1.0000    0.22916   0.17564   0.19900   Biso      1.000     C          0.066992  
         C20       1.0000    0.37758   0.62795   0.01542   Biso      1.000     C          0.07820099999999999           
         C21       1.0000    0.54612   0.17726   0.41858   Biso      1.000     C          0.094846  
         C22       1.0000    0.51291   0.69933   0.68644   Biso      1.000     C          0.065289  
         C23       1.0000    0.38264   0.50366   0.11328   Biso      1.000     C          0.06448   
         C24       1.0000    0.77286   0.02892   0.89944   Biso      1.000     C          0.09450700000000001           
         C25       1.0000    0.46984   0.02336   0.19900   Biso      1.000     C          0.069263  
         C26       1.0000    0.23064   0.60962   0.11328   Biso      1.000     C          0.06311599999999999           
         C27       1.0000    0.04983   0.35953   0.80724   Biso      1.000     C          0.0869    
         C28       1.0000    0.13787   0.57357   0.89334   Biso      1.000     C          0.08976   
         C29       1.0000    0.67353   0.98711   0.68644   Biso      1.000     C          0.063196  
         C30       1.0000    0.32647   0.01289   0.31356   Biso      1.000     C          0.063191  
         C31       1.0000    0.22714   0.97108   0.10056   Biso      1.000     C          0.09450399999999999           
         C32       1.0000    0.76936   0.39038   0.88672   Biso      1.000     C          0.06311900000000001           
         Mn1       1.0000    0.38508   0.14073   0.87046   Biso      1.000     Mn          0.975509  
         Mn2       1.0000    0.61492   0.85927   0.12954   Biso      1.000     Mn          0.9755149999999999  
         Mn3       1.0000    0.62164   0.54980   0.35454   Biso      1.000     Mn          0.954832  
         Mn4       1.0000    0.01462   0.27027   0.12954   Biso      1.000     Mn          0.974046  
         Mn5       1.0000    0.98538   0.72973   0.87046   Biso      1.000     Mn          0.974008  
         Mn6       1.0000    0.76710   0.19526   0.64546   Biso      1.000     Mn          0.953757  
         Mn7       1.0000    0.37836   0.45020   0.64546   Biso      1.000     Mn          0.954839  
         Mn8       1.0000    0.23290   0.80474   0.35454   Biso      1.000     Mn          0.9537469999999999  
         N1        1.0000    0.91011   0.37593   0.13964   Biso      1.000     N          -0.38939  
         N2        1.0000    0.45629   0.70641   0.04282   Biso      1.000     N          -0.36139  
         N3        1.0000    0.62617   0.87064   0.98218   Biso      1.000     N          -0.358842           
         N4        1.0000    0.91347   0.66359   0.95718   Biso      1.000     N          -0.362209           
         N5        1.0000    0.72245   0.56640   0.27002   Biso      1.000     N          -0.39222199999999996          
         N6        1.0000    0.76393   0.32129   0.80024   Biso      1.000     N          -0.34868000000000005          
         N7        1.0000    0.37383   0.12936   0.01782   Biso      1.000     N          -0.35884  
         N8        1.0000    0.51839   0.96762   0.16862   Biso      1.000     N          -0.378064           
         N9        1.0000    0.36928   0.80173   0.49772   Biso      1.000     N          -0.370508           
         N10       1.0000    0.23607   0.67871   0.19976   Biso      1.000     N          -0.34867800000000004          
         N11       1.0000    0.54371   0.29359   0.95718   Biso      1.000     N          -0.361396           
         N12       1.0000    0.08989   0.62407   0.86036   Biso      1.000     N          -0.38938  
         N13       1.0000    0.84977   0.79900   0.83138   Biso      1.000     N          -0.374863           
         N14       1.0000    0.85601   0.11154   0.98218   Biso      1.000     N          -0.35886399999999996          
         N15       1.0000    0.63072   0.19827   0.50228   Biso      1.000     N          -0.37050900000000003          
         N16       1.0000    0.95243   0.29638   0.72998   Biso      1.000     N          -0.391939           
         N17       1.0000    0.62844   0.69599   0.49772   Biso      1.000     N          -0.372479           
         N18       1.0000    0.29746   0.94672   0.33818   Biso      1.000     N          -0.374209           
         N19       1.0000    0.14399   0.88846   0.01782   Biso      1.000     N          -0.358861           
         N20       1.0000    0.27047   0.23629   0.86036   Biso      1.000     N          -0.389046           
         N21       1.0000    0.46369   0.52105   0.19976   Biso      1.000     N          -0.350103           
         N22       1.0000    0.04757   0.70362   0.27002   Biso      1.000     N          -0.391942           
         N23       1.0000    0.48161   0.03238   0.83138   Biso      1.000     N          -0.378066           
         N24       1.0000    0.53631   0.47895   0.80024   Biso      1.000     N          -0.350106           
         N25       1.0000    0.08653   0.33641   0.04282   Biso      1.000     N          -0.36221  
         N26       1.0000    0.70254   0.05328   0.66182   Biso      1.000     N          -0.374209           
         N27       1.0000    0.15023   0.20100   0.16862   Biso      1.000     N          -0.374873           
         N28       1.0000    0.54072   0.39146   0.33818   Biso      1.000     N          -0.375906           
         N29       1.0000    0.45928   0.60854   0.66182   Biso      1.000     N          -0.375907           
         N30       1.0000    0.37156   0.30401   0.50228   Biso      1.000     N          -0.37248000000000003          
         N31       1.0000    0.27755   0.43360   0.72998   Biso      1.000     N          -0.392223           
         N32       1.0000    0.72953   0.76371   0.13964   Biso      1.000     N          -0.38905  
         W1        1.0000    0.22896   0.47896   0.95792   Biso      1.000     W          0.40870100000000004           
         W2        1.0000    0.77104   0.52104   0.04208   Biso      1.000     W          0.408711  
         W3        1.0000    0.37907   0.12907   0.25814   Biso      1.000     W          0.400876  
         W4        1.0000    0.62093   0.87093   0.74186   Biso      1.000     W          0.400875 