
##########################################################################
#               Crystallographic Information Format file
#               Produced by PyCifRW module
#
#  This is a CIF file.  CIF has been adopted by the International
#  Union of Crystallography as the standard for data archiving and
#  transmission.
#
#  For information on this file format, follow the CIF links at
#  http://www.iucr.org
##########################################################################

data_image0

_cell_length_a                          9.249
_cell_length_b                          9.807
_cell_length_c                          10.73
_cell_angle_alpha                       68
_cell_angle_beta                        84.47
_cell_angle_gamma                       62.05
_symmetry_space_group_name_H-M          'P 1'
_symmetry_int_tables_number             1
loop_
  _symmetry_equiv_pos_as_xyz
         'x, y, z' 
loop_
  _atom_site_label
  _atom_site_occupancy
  _atom_site_fract_x
  _atom_site_fract_y
  _atom_site_fract_z
  _atom_site_thermal_displace_type
  _atom_site_B_iso_or_equiv
  _atom_site_type_symbol
  _atom_site_charge
         C1        1.0000    0.45640   0.08860   0.32150   Biso      1.000     C          -0.350607           
         C2        1.0000    0.48590   0.51460   0.80940   Biso      1.000     C          -0.335432           
         C3        1.0000    0.57740   0.61590   0.78490   Biso      1.000     C          -0.154926           
         C4        1.0000    0.46220   0.79980   0.70470   Biso      1.000     C          -0.159316           
         C5        1.0000    0.54360   0.91140   0.67850   Biso      1.000     C          -0.350603           
         C6        1.0000    0.59960   0.91220   0.80500   Biso      1.000     C          0.71821   
         C7        1.0000    0.04240   0.99430   0.56020   Biso      1.000     C          -0.14554  
         C8        1.0000    0.92580   0.11590   0.62520   Biso      1.000     C          -0.347418           
         C9        1.0000    0.01370   0.09380   0.74860   Biso      1.000     C          0.700941  
         C10       1.0000    0.40790   0.67140   0.12530   Biso      1.000     C          0.656301  
         C11       1.0000    0.51410   0.48540   0.19060   Biso      1.000     C          -0.335432           
         C12       1.0000    0.42260   0.38410   0.21510   Biso      1.000     C          -0.154927           
         C13       1.0000    0.53780   0.20020   0.29530   Biso      1.000     C          -0.15931199999999998          
         C14       1.0000    0.07420   0.88410   0.37480   Biso      1.000     C          -0.347418           
         C15       1.0000    0.40040   0.08780   0.19500   Biso      1.000     C          0.71821   
         C16       1.0000    0.59210   0.32860   0.87470   Biso      1.000     C          0.656301  
         C17       1.0000    0.98630   0.90620   0.25140   Biso      1.000     C          0.700942  
         C18       1.0000    0.95760   0.00570   0.43980   Biso      1.000     C          -0.145539           
         H1        1.0000    0.42360   0.81090   0.61880   Biso      1.000     H          0.099902  
         H2        1.0000    0.36230   0.12590   0.37180   Biso      1.000     H          0.133466  
         H3        1.0000    0.53380   0.97560   0.37730   Biso      1.000     H          0.149291  
         H4        1.0000    0.63280   0.16210   0.24610   Biso      1.000     H          0.097524  
         H5        1.0000    0.57640   0.18910   0.38120   Biso      1.000     H          0.099902  
         H6        1.0000    0.32890   0.42470   0.26480   Biso      1.000     H          0.095538  
         H7        1.0000    0.38220   0.39670   0.12920   Biso      1.000     H          0.09736399999999999           
         H8        1.0000    0.60090   0.45030   0.13370   Biso      1.000     H          0.143656  
         H9        1.0000    0.56560   0.46030   0.27640   Biso      1.000     H          0.13068   
         H10       1.0000    0.83180   0.09610   0.65100   Biso      1.000     H          0.13766   
         H11       1.0000    0.36720   0.83790   0.75390   Biso      1.000     H          0.097525  
         H12       1.0000    0.88600   0.22920   0.56050   Biso      1.000     H          0.144301  
         H13       1.0000    0.13370   0.01780   0.53120   Biso      1.000     H          0.100459  
         H14       1.0000    0.63770   0.87410   0.62820   Biso      1.000     H          0.133465  
         H15       1.0000    0.86630   0.98220   0.46880   Biso      1.000     H          0.100459  
         H16       1.0000    0.91340   0.11830   0.37310   Biso      1.000     H          0.101051  
         H17       1.0000    0.11400   0.77080   0.43950   Biso      1.000     H          0.144301  
         H18       1.0000    0.16820   0.90390   0.34900   Biso      1.000     H          0.137659  
         H19       1.0000    0.43440   0.53970   0.72360   Biso      1.000     H          0.130679  
         H20       1.0000    0.46620   0.02440   0.62270   Biso      1.000     H          0.14929   
         H21       1.0000    0.61780   0.60330   0.87080   Biso      1.000     H          0.09736399999999999           
         H22       1.0000    0.67110   0.57530   0.73520   Biso      1.000     H          0.095537  
         H23       1.0000    0.08660   0.88170   0.62690   Biso      1.000     H          0.101051  
         H24       1.0000    0.39910   0.54970   0.86630   Biso      1.000     H          0.143656  
         La1       1.0000    0.22478   0.04374   0.98423   Biso      1.000     La          1.948014  
         La2       1.0000    0.77522   0.95626   0.01577   Biso      1.000     La          1.948015  
         O1        1.0000    0.25190   0.12230   0.17640   Biso      1.000     O          -0.649878           
         O2        1.0000    0.50050   0.05100   0.10990   Biso      1.000     O          -0.695517           
         O3        1.0000    0.42170   0.76590   0.17270   Biso      1.000     O          -0.6449050000000001           
         O4        1.0000    0.30810   0.73370   0.02250   Biso      1.000     O          -0.6319319999999999           
         O5        1.0000    0.12740   0.13360   0.73380   Biso      1.000     O          -0.63972  
         O6        1.0000    0.97770   0.03170   0.86550   Biso      1.000     O          -0.699171           
         O7        1.0000    0.74810   0.87770   0.82360   Biso      1.000     O          -0.649879           
         O8        1.0000    0.49950   0.94900   0.89010   Biso      1.000     O          -0.695516           
         O9        1.0000    0.57830   0.23410   0.82730   Biso      1.000     O          -0.6449050000000001           
         O10       1.0000    0.69190   0.26630   0.97750   Biso      1.000     O          -0.6319319999999999           
         O11       1.0000    0.87260   0.86640   0.26620   Biso      1.000     O          -0.63972  
         O12       1.0000    0.02230   0.96830   0.13450   Biso      1.000     O          -0.699171 