
##########################################################################
#               Crystallographic Information Format file
#               Produced by PyCifRW module
#
#  This is a CIF file.  CIF has been adopted by the International
#  Union of Crystallography as the standard for data archiving and
#  transmission.
#
#  For information on this file format, follow the CIF links at
#  http://www.iucr.org
##########################################################################

data_image0

_cell_length_a                          9.239
_cell_length_b                          9.79
_cell_length_c                          10.709
_cell_angle_alpha                       68.04
_cell_angle_beta                        84.49
_cell_angle_gamma                       62.01
_symmetry_space_group_name_H-M          'P 1'
_symmetry_int_tables_number             1
loop_
  _symmetry_equiv_pos_as_xyz
         'x, y, z' 
loop_
  _atom_site_label
  _atom_site_occupancy
  _atom_site_fract_x
  _atom_site_fract_y
  _atom_site_fract_z
  _atom_site_thermal_displace_type
  _atom_site_B_iso_or_equiv
  _atom_site_type_symbol
  _atom_site_charge
         C1        1.0000    0.07460   0.38370   0.37480   Biso      1.000     C          -0.34096  
         C2        1.0000    0.54360   0.41140   0.67810   Biso      1.000     C          -0.34887199999999996          
         C3        1.0000    0.59980   0.41200   0.80520   Biso      1.000     C          0.715251  
         C4        1.0000    0.04240   0.49480   0.56020   Biso      1.000     C          -0.143516           
         C5        1.0000    0.92540   0.61630   0.62520   Biso      1.000     C          -0.340959           
         C6        1.0000    0.01330   0.59470   0.74800   Biso      1.000     C          0.697437  
         C7        1.0000    0.40740   0.17120   0.12500   Biso      1.000     C          0.6529550000000001  
         C8        1.0000    0.51460   0.98520   0.19050   Biso      1.000     C          -0.33184  
         C9        1.0000    0.42280   0.88390   0.21520   Biso      1.000     C          -0.151739           
         C10       1.0000    0.53700   0.70060   0.29500   Biso      1.000     C          -0.145183           
         C11       1.0000    0.45640   0.58860   0.32190   Biso      1.000     C          -0.348871           
         C12       1.0000    0.40020   0.58800   0.19480   Biso      1.000     C          0.715252  
         C13       1.0000    0.95760   0.50520   0.43980   Biso      1.000     C          -0.143514           
         C14       1.0000    0.48540   0.01480   0.80950   Biso      1.000     C          -0.331839           
         C15       1.0000    0.98670   0.40530   0.25200   Biso      1.000     C          0.697438  
         C16       1.0000    0.46300   0.29940   0.70500   Biso      1.000     C          -0.145181           
         C17       1.0000    0.57720   0.11610   0.78480   Biso      1.000     C          -0.15174  
         C18       1.0000    0.59260   0.82880   0.87500   Biso      1.000     C          0.652954  
         H1        1.0000    0.08500   0.38100   0.62900   Biso      1.000     H          0.100613  
         H2        1.0000    0.11300   0.26800   0.43600   Biso      1.000     H          0.141543  
         H3        1.0000    0.17000   0.40200   0.34800   Biso      1.000     H          0.13736900000000002           
         H4        1.0000    0.86700   0.48300   0.46800   Biso      1.000     H          0.100617  
         H5        1.0000    0.91500   0.61900   0.37100   Biso      1.000     H          0.100613  
         H6        1.0000    0.36100   0.61900   0.37400   Biso      1.000     H          0.13277   
         H7        1.0000    0.53800   0.47300   0.37400   Biso      1.000     H          0.145004  
         H8        1.0000    0.63400   0.66100   0.24800   Biso      1.000     H          0.096671  
         H9        1.0000    0.57700   0.68700   0.38600   Biso      1.000     H          0.09228099999999999           
         H10       1.0000    0.38100   0.89800   0.12800   Biso      1.000     H          0.0934    
         H11       1.0000    0.13300   0.51700   0.53200   Biso      1.000     H          0.100617  
         H12       1.0000    0.32500   0.92400   0.26300   Biso      1.000     H          0.094201  
         H13       1.0000    0.59800   0.95700   0.12500   Biso      1.000     H          0.139989  
         H14       1.0000    0.88700   0.73200   0.56400   Biso      1.000     H          0.141545  
         H15       1.0000    0.40200   0.04300   0.87500   Biso      1.000     H          0.139989  
         H16       1.0000    0.43300   0.04200   0.72400   Biso      1.000     H          0.133822  
         H17       1.0000    0.67500   0.07600   0.73700   Biso      1.000     H          0.0942    
         H18       1.0000    0.61900   0.10200   0.87200   Biso      1.000     H          0.0934    
         H19       1.0000    0.42300   0.31300   0.61400   Biso      1.000     H          0.092278  
         H20       1.0000    0.83000   0.59800   0.65200   Biso      1.000     H          0.13736900000000002           
         H21       1.0000    0.46200   0.52700   0.62600   Biso      1.000     H          0.145003  
         H22       1.0000    0.63900   0.38100   0.62600   Biso      1.000     H          0.132772  
         H23       1.0000    0.56700   0.95800   0.27600   Biso      1.000     H          0.13382   
         H24       1.0000    0.36600   0.33900   0.75200   Biso      1.000     H          0.096671  
         La1       1.0000    0.77530   0.45620   0.01590   Biso      1.000     La          1.9466009999999998  
         La2       1.0000    0.22470   0.54380   0.98410   Biso      1.000     La          1.9466009999999998  
         O1        1.0000    0.02200   0.46820   0.13460   Biso      1.000     O          -0.700094           
         O2        1.0000    0.87250   0.36580   0.26630   Biso      1.000     O          -0.639295           
         O3        1.0000    0.50100   0.55100   0.11020   Biso      1.000     O          -0.696947           
         O4        1.0000    0.42200   0.26560   0.17300   Biso      1.000     O          -0.648257           
         O5        1.0000    0.25240   0.62200   0.17680   Biso      1.000     O          -0.646895           
         O6        1.0000    0.30850   0.23290   0.02270   Biso      1.000     O          -0.6269279999999999           
         O7        1.0000    0.97800   0.53180   0.86540   Biso      1.000     O          -0.700094           
         O8        1.0000    0.12750   0.63420   0.73370   Biso      1.000     O          -0.639295           
         O9        1.0000    0.49900   0.44900   0.88980   Biso      1.000     O          -0.696947           
         O10       1.0000    0.57800   0.73440   0.82700   Biso      1.000     O          -0.648257           
         O11       1.0000    0.74760   0.37800   0.82320   Biso      1.000     O          -0.646895           
         O12       1.0000    0.69150   0.76710   0.97730   Biso      1.000     O          -0.6269279999999999 