
##########################################################################
#               Crystallographic Information Format file
#               Produced by PyCifRW module
#
#  This is a CIF file.  CIF has been adopted by the International
#  Union of Crystallography as the standard for data archiving and
#  transmission.
#
#  For information on this file format, follow the CIF links at
#  http://www.iucr.org
##########################################################################

data_image0

_cell_length_a                          6.673
_cell_length_b                          14.044
_cell_length_c                          23.825
_cell_angle_alpha                       90
_cell_angle_beta                        90
_cell_angle_gamma                       90
_symmetry_space_group_name_H-M          'P 1'
_symmetry_int_tables_number             1
loop_
  _symmetry_equiv_pos_as_xyz
         'x, y, z' 
loop_
  _atom_site_label
  _atom_site_occupancy
  _atom_site_fract_x
  _atom_site_fract_y
  _atom_site_fract_z
  _atom_site_thermal_displace_type
  _atom_site_B_iso_or_equiv
  _atom_site_type_symbol
  _atom_site_charge
         C1        1.0000    0.86170   0.20390   0.00890   Biso      1.000     C          0.5454720000000001  
         C2        1.0000    0.55590   0.56720   0.71220   Biso      1.000     C          0.169494  
         C3        1.0000    0.51310   0.47280   0.73390   Biso      1.000     C          0.208691  
         C4        1.0000    0.48810   0.51280   0.79060   Biso      1.000     C          0.140766  
         C5        1.0000    0.36170   0.79610   0.00890   Biso      1.000     C          0.5454680000000001  
         C6        1.0000    0.47780   0.89060   0.26770   Biso      1.000     C          0.226098  
         C7        1.0000    0.44410   0.93280   0.21220   Biso      1.000     C          0.169492  
         C8        1.0000    0.48690   0.02720   0.23390   Biso      1.000     C          0.20869400000000002           
         C9        1.0000    0.52220   0.60940   0.76770   Biso      1.000     C          0.226104  
         C10       1.0000    0.51190   0.98720   0.29060   Biso      1.000     C          0.140761  
         C11       1.0000    0.97780   0.60940   0.23230   Biso      1.000     C          0.22609899999999997           
         C12       1.0000    0.94410   0.56720   0.28780   Biso      1.000     C          0.169495  
         C13       1.0000    0.98690   0.47280   0.26610   Biso      1.000     C          0.208695  
         C14       1.0000    0.01190   0.51280   0.20940   Biso      1.000     C          0.140758  
         C15       1.0000    0.13830   0.79610   0.99110   Biso      1.000     C          0.545466  
         C16       1.0000    0.97780   0.10940   0.26770   Biso      1.000     C          0.226098  
         C17       1.0000    0.94410   0.06720   0.21220   Biso      1.000     C          0.169493  
         C18       1.0000    0.63830   0.70390   0.50890   Biso      1.000     C          0.545469  
         C19       1.0000    0.86170   0.70390   0.49110   Biso      1.000     C          0.54547   
         C20       1.0000    0.98810   0.98720   0.70940   Biso      1.000     C          0.14077   
         C21       1.0000    0.01310   0.02720   0.76610   Biso      1.000     C          0.20869200000000002           
         C22       1.0000    0.98810   0.48720   0.79060   Biso      1.000     C          0.140774  
         C23       1.0000    0.01310   0.52720   0.73390   Biso      1.000     C          0.208698  
         C24       1.0000    0.05590   0.43280   0.71220   Biso      1.000     C          0.169492  
         C25       1.0000    0.02220   0.39060   0.76770   Biso      1.000     C          0.22611199999999998           
         C26       1.0000    0.36170   0.29610   0.49110   Biso      1.000     C          0.545471  
         C27       1.0000    0.48810   0.01280   0.70940   Biso      1.000     C          0.140765  
         C28       1.0000    0.51310   0.97280   0.76610   Biso      1.000     C          0.20868899999999999           
         C29       1.0000    0.55590   0.06720   0.78780   Biso      1.000     C          0.169489  
         C30       1.0000    0.52220   0.10940   0.73230   Biso      1.000     C          0.226095  
         C31       1.0000    0.63830   0.20390   0.99110   Biso      1.000     C          0.54547   
         C32       1.0000    0.51190   0.48720   0.20940   Biso      1.000     C          0.140761  
         C33       1.0000    0.48690   0.52720   0.26610   Biso      1.000     C          0.208695  
         C34       1.0000    0.44410   0.43280   0.28780   Biso      1.000     C          0.169496  
         C35       1.0000    0.47780   0.39060   0.23230   Biso      1.000     C          0.22609899999999997           
         C36       1.0000    0.13830   0.29610   0.50890   Biso      1.000     C          0.545469  
         C37       1.0000    0.02220   0.89060   0.73230   Biso      1.000     C          0.22610300000000003           
         C38       1.0000    0.05590   0.93280   0.78780   Biso      1.000     C          0.169491  
         C39       1.0000    0.98690   0.97280   0.23390   Biso      1.000     C          0.20869400000000002           
         C40       1.0000    0.01190   0.01280   0.29060   Biso      1.000     C          0.140763  
         Ce1       1.0000    0.88144   0.70566   0.63392   Biso      1.000     Ce          2.063185  
         Ce2       1.0000    0.38144   0.79434   0.86608   Biso      1.000     Ce          2.063228  
         Ce3       1.0000    0.61856   0.70566   0.36608   Biso      1.000     Ce          2.0632200000000003  
         Ce4       1.0000    0.11856   0.79434   0.13392   Biso      1.000     Ce          2.063224  
         Ce5       1.0000    0.11856   0.29434   0.36608   Biso      1.000     Ce          2.063213  
         Ce6       1.0000    0.61856   0.20566   0.13392   Biso      1.000     Ce          2.063222  
         Ce7       1.0000    0.38144   0.29434   0.63392   Biso      1.000     Ce          2.063184  
         Ce8       1.0000    0.88144   0.20566   0.86608   Biso      1.000     Ce          2.06328   
         H1        1.0000    0.91800   0.41600   0.88900   Biso      1.000     H          0.434821  
         H2        1.0000    0.41800   0.08400   0.61100   Biso      1.000     H          0.43473100000000003           
         H3        1.0000    0.41800   0.58400   0.88900   Biso      1.000     H          0.43475699999999995           
         H4        1.0000    0.58200   0.91600   0.38900   Biso      1.000     H          0.43475   
         H5        1.0000    0.08200   0.58400   0.11100   Biso      1.000     H          0.434745  
         H6        1.0000    0.08200   0.08400   0.38900   Biso      1.000     H          0.434752  
         H7        1.0000    0.91800   0.91600   0.61100   Biso      1.000     H          0.434717  
         H8        1.0000    0.58200   0.41600   0.11100   Biso      1.000     H          0.434754  
         O1        1.0000    0.54420   0.52080   0.16220   Biso      1.000     O          -0.239761           
         O2        1.0000    0.49550   0.60990   0.28590   Biso      1.000     O          -0.519785           
         O3        1.0000    0.39420   0.40380   0.33560   Biso      1.000     O          -0.512889           
         O4        1.0000    0.47560   0.30820   0.21310   Biso      1.000     O          -0.47688800000000003          
         O5        1.0000    0.12070   0.12820   0.40410   Biso      1.000     O          -0.850442           
         O6        1.0000    0.01210   0.29340   0.47080   Biso      1.000     O          -0.57845  
         O7        1.0000    0.04420   0.97920   0.33780   Biso      1.000     O          -0.239761           
         O8        1.0000    0.99550   0.89010   0.21410   Biso      1.000     O          -0.519783           
         O9        1.0000    0.89420   0.09620   0.16440   Biso      1.000     O          -0.512893           
         O10       1.0000    0.51210   0.20660   0.02920   Biso      1.000     O          -0.578445           
         O11       1.0000    0.10470   0.30010   0.56070   Biso      1.000     O          -0.610274           
         O12       1.0000    0.60470   0.19990   0.93930   Biso      1.000     O          -0.610271           
         O13       1.0000    0.39530   0.30010   0.43930   Biso      1.000     O          -0.610271           
         O14       1.0000    0.52440   0.19180   0.71310   Biso      1.000     O          -0.476889           
         O15       1.0000    0.60580   0.09620   0.83560   Biso      1.000     O          -0.512893           
         O16       1.0000    0.50450   0.89010   0.78590   Biso      1.000     O          -0.519782           
         O17       1.0000    0.45580   0.97920   0.66220   Biso      1.000     O          -0.23976999999999998          
         O18       1.0000    0.48790   0.29340   0.52920   Biso      1.000     O          -0.578451           
         O19       1.0000    0.97560   0.19180   0.28690   Biso      1.000     O          -0.476882           
         O20       1.0000    0.37930   0.12820   0.59590   Biso      1.000     O          -0.850384           
         O21       1.0000    0.02440   0.30820   0.78690   Biso      1.000     O          -0.476917           
         O22       1.0000    0.10580   0.40380   0.66440   Biso      1.000     O          -0.512886           
         O23       1.0000    0.00450   0.60990   0.71410   Biso      1.000     O          -0.5197890000000001           
         O24       1.0000    0.95580   0.52080   0.83780   Biso      1.000     O          -0.239785           
         O25       1.0000    0.98790   0.20660   0.97080   Biso      1.000     O          -0.578455           
         O26       1.0000    0.62070   0.37180   0.09590   Biso      1.000     O          -0.850454           
         O27       1.0000    0.12070   0.62820   0.09590   Biso      1.000     O          -0.850439           
         O28       1.0000    0.62070   0.87180   0.40410   Biso      1.000     O          -0.8504440000000001           
         O29       1.0000    0.01210   0.79340   0.02920   Biso      1.000     O          -0.578443           
         O30       1.0000    0.89530   0.19990   0.06070   Biso      1.000     O          -0.610263           
         O31       1.0000    0.02440   0.80820   0.71310   Biso      1.000     O          -0.476882           
         O32       1.0000    0.10580   0.90380   0.83560   Biso      1.000     O          -0.512886           
         O33       1.0000    0.00450   0.10990   0.78590   Biso      1.000     O          -0.519772           
         O34       1.0000    0.95580   0.02080   0.66220   Biso      1.000     O          -0.23975900000000003          
         O35       1.0000    0.98790   0.70660   0.52920   Biso      1.000     O          -0.578449           
         O36       1.0000    0.89530   0.69990   0.43930   Biso      1.000     O          -0.610272           
         O37       1.0000    0.87930   0.87180   0.59590   Biso      1.000     O          -0.8503959999999999           
         O38       1.0000    0.52440   0.69180   0.78690   Biso      1.000     O          -0.47690600000000005          
         O39       1.0000    0.60580   0.59620   0.66440   Biso      1.000     O          -0.512893           
         O40       1.0000    0.50450   0.39010   0.71410   Biso      1.000     O          -0.51979  
         O41       1.0000    0.45580   0.47920   0.83780   Biso      1.000     O          -0.23979899999999998          
         O42       1.0000    0.48790   0.79340   0.97080   Biso      1.000     O          -0.578445           
         O43       1.0000    0.39530   0.80010   0.06070   Biso      1.000     O          -0.610264           
         O44       1.0000    0.37930   0.62820   0.90410   Biso      1.000     O          -0.8504280000000001           
         O45       1.0000    0.47560   0.80820   0.28690   Biso      1.000     O          -0.476882           
         O46       1.0000    0.39420   0.90380   0.16440   Biso      1.000     O          -0.512893           
         O47       1.0000    0.49550   0.10990   0.21410   Biso      1.000     O          -0.519783           
         O48       1.0000    0.54420   0.02080   0.33780   Biso      1.000     O          -0.23975900000000003          
         O49       1.0000    0.51210   0.70660   0.47080   Biso      1.000     O          -0.578451           
         O50       1.0000    0.60470   0.69990   0.56070   Biso      1.000     O          -0.610271           
         O51       1.0000    0.97560   0.69180   0.21310   Biso      1.000     O          -0.47688800000000003          
         O52       1.0000    0.89420   0.59620   0.33560   Biso      1.000     O          -0.512892           
         O53       1.0000    0.99550   0.39010   0.28590   Biso      1.000     O          -0.519786           
         O54       1.0000    0.04420   0.47920   0.16220   Biso      1.000     O          -0.239761           
         O55       1.0000    0.10470   0.80010   0.93930   Biso      1.000     O          -0.610268           
         O56       1.0000    0.87930   0.37180   0.90410   Biso      1.000     O          -0.8505370000000001 