
##########################################################################
#               Crystallographic Information Format file
#               Produced by PyCifRW module
#
#  This is a CIF file.  CIF has been adopted by the International
#  Union of Crystallography as the standard for data archiving and
#  transmission.
#
#  For information on this file format, follow the CIF links at
#  http://www.iucr.org
##########################################################################

data_image0

_cell_length_a                          15.8956
_cell_length_b                          15.8956
_cell_length_c                          7.6028
_cell_angle_alpha                       90
_cell_angle_beta                        90
_cell_angle_gamma                       120
_symmetry_space_group_name_H-M          'P 1'
_symmetry_int_tables_number             1
loop_
  _symmetry_equiv_pos_as_xyz
         'x, y, z' 
loop_
  _atom_site_label
  _atom_site_occupancy
  _atom_site_fract_x
  _atom_site_fract_y
  _atom_site_fract_z
  _atom_site_thermal_displace_type
  _atom_site_B_iso_or_equiv
  _atom_site_type_symbol
  _atom_site_charge
         C1        1.0000    0.38760   0.92400   0.01140   Biso      1.000     C          0.169996  
         C2        1.0000    0.46360   0.38760   0.51140   Biso      1.000     C          0.169996  
         C3        1.0000    0.92400   0.53640   0.51140   Biso      1.000     C          0.169996  
         C4        1.0000    0.96460   0.48250   0.57080   Biso      1.000     C          -0.17433099999999999          
         C5        1.0000    0.40660   0.81340   0.85070   Biso      1.000     C          0.280342  
         C6        1.0000    0.92360   0.38720   0.51080   Biso      1.000     C          0.17231   
         C7        1.0000    0.96660   0.32360   0.55810   Biso      1.000     C          0.623782  
         C8        1.0000    0.32360   0.35700   0.05810   Biso      1.000     C          0.623783  
         C9        1.0000    0.38720   0.46360   0.01080   Biso      1.000     C          0.17231   
         C10       1.0000    0.96720   0.64350   0.55760   Biso      1.000     C          0.626945  
         C11       1.0000    0.48250   0.51790   0.07080   Biso      1.000     C          -0.174333           
         C12       1.0000    0.53640   0.61240   0.01140   Biso      1.000     C          0.169997  
         C13       1.0000    0.35650   0.32370   0.55760   Biso      1.000     C          0.626945  
         C14       1.0000    0.40680   0.59340   0.85070   Biso      1.000     C          0.280342  
         C15       1.0000    0.67640   0.64300   0.55810   Biso      1.000     C          0.623783  
         C16       1.0000    0.59320   0.40660   0.35070   Biso      1.000     C          0.280342  
         C17       1.0000    0.03540   0.51750   0.07080   Biso      1.000     C          -0.174333           
         C18       1.0000    0.61280   0.53640   0.51080   Biso      1.000     C          0.17231   
         C19       1.0000    0.81340   0.40680   0.35070   Biso      1.000     C          0.280342  
         C20       1.0000    0.48210   0.96460   0.07080   Biso      1.000     C          -0.17433099999999999          
         C21       1.0000    0.51750   0.48210   0.57080   Biso      1.000     C          -0.174332           
         C22       1.0000    0.03340   0.67640   0.05810   Biso      1.000     C          0.623783  
         C23       1.0000    0.18660   0.59320   0.85070   Biso      1.000     C          0.280342  
         C24       1.0000    0.46360   0.07640   0.51080   Biso      1.000     C          0.17231   
         C25       1.0000    0.59340   0.18660   0.35070   Biso      1.000     C          0.280342  
         C26       1.0000    0.35700   0.03340   0.55810   Biso      1.000     C          0.623783  
         C27       1.0000    0.07640   0.61280   0.01080   Biso      1.000     C          0.17231   
         C28       1.0000    0.51790   0.03540   0.57080   Biso      1.000     C          -0.174333           
         C29       1.0000    0.61240   0.07600   0.51140   Biso      1.000     C          0.169997  
         C30       1.0000    0.03280   0.35650   0.05760   Biso      1.000     C          0.626945  
         C31       1.0000    0.32370   0.96720   0.05760   Biso      1.000     C          0.626945  
         C32       1.0000    0.64350   0.67630   0.05760   Biso      1.000     C          0.626945  
         C33       1.0000    0.64300   0.96660   0.05810   Biso      1.000     C          0.623783  
         C34       1.0000    0.07600   0.46360   0.01140   Biso      1.000     C          0.169997  
         C35       1.0000    0.53640   0.92360   0.01080   Biso      1.000     C          0.17231   
         C36       1.0000    0.67630   0.03280   0.55760   Biso      1.000     C          0.626945  
         Gd1       1.0000    0.81490   0.62979   0.25515   Biso      1.000     Gd          1.9292209999999999  
         Gd2       1.0000    0.62979   0.81489   0.75515   Biso      1.000     Gd          1.9292220000000002  
         Gd3       1.0000    0.37021   0.18511   0.25515   Biso      1.000     Gd          1.9292209999999999  
         Gd4       1.0000    0.18511   0.81490   0.75515   Biso      1.000     Gd          1.9292209999999999  
         Gd5       1.0000    0.81489   0.18510   0.25515   Biso      1.000     Gd          1.9292200000000002  
         Gd6       1.0000    0.18510   0.37021   0.75515   Biso      1.000     Gd          1.9292220000000002  
         H1        1.0000    0.23880   0.61930   0.77300   Biso      1.000     H          0.084287  
         H2        1.0000    0.38050   0.76120   0.77300   Biso      1.000     H          0.084287  
         H3        1.0000    0.50840   0.01720   0.14760   Biso      1.000     H          0.153471  
         H4        1.0000    0.61930   0.38050   0.27300   Biso      1.000     H          0.084287  
         H5        1.0000    0.98280   0.49120   0.14760   Biso      1.000     H          0.153471  
         H6        1.0000    0.38070   0.61950   0.77300   Biso      1.000     H          0.084287  
         H7        1.0000    0.61950   0.23880   0.27300   Biso      1.000     H          0.084287  
         H8        1.0000    0.49160   0.98280   0.64760   Biso      1.000     H          0.153471  
         H9        1.0000    0.50880   0.49160   0.14760   Biso      1.000     H          0.153471  
         H10       1.0000    0.49120   0.50840   0.64760   Biso      1.000     H          0.153471  
         H11       1.0000    0.01720   0.50880   0.64760   Biso      1.000     H          0.153471  
         H12       1.0000    0.76120   0.38070   0.27300   Biso      1.000     H          0.084287  
         N1        1.0000    0.50120   0.15240   0.40140   Biso      1.000     N          -0.35889499999999996          
         N2        1.0000    0.15240   0.50110   0.90170   Biso      1.000     N          -0.358842           
         N3        1.0000    0.65130   0.15240   0.40170   Biso      1.000     N          -0.358842           
         N4        1.0000    0.15240   0.65120   0.90140   Biso      1.000     N          -0.35889499999999996          
         N5        1.0000    0.23270   0.46570   0.41350   Biso      1.000     N          0.738672  
         N6        1.0000    0.53430   0.76700   0.41350   Biso      1.000     N          0.738672  
         N7        1.0000    0.46570   0.23300   0.91350   Biso      1.000     N          0.738672  
         N8        1.0000    0.84760   0.34880   0.40140   Biso      1.000     N          -0.35889499999999996          
         N9        1.0000    0.50110   0.34870   0.40170   Biso      1.000     N          -0.358842           
         N10       1.0000    0.84760   0.49890   0.40170   Biso      1.000     N          -0.358842           
         N11       1.0000    0.65120   0.49880   0.40140   Biso      1.000     N          -0.35889499999999996          
         N12       1.0000    0.34880   0.50120   0.90140   Biso      1.000     N          -0.35889499999999996          
         N13       1.0000    0.49890   0.65130   0.90170   Biso      1.000     N          -0.35884299999999997          
         N14       1.0000    0.76700   0.23270   0.91350   Biso      1.000     N          0.738672  
         N15       1.0000    0.76730   0.53430   0.91350   Biso      1.000     N          0.738672  
         N16       1.0000    0.34870   0.84760   0.90170   Biso      1.000     N          -0.358842           
         N17       1.0000    0.23300   0.76730   0.41350   Biso      1.000     N          0.738672  
         N18       1.0000    0.49880   0.84760   0.90140   Biso      1.000     N          -0.35889499999999996          
         O1        1.0000    0.96014   0.63877   0.15560   Biso      1.000     O          -0.649207           
         O2        1.0000    0.07236   0.75909   0.99250   Biso      1.000     O          -0.595241           
         O3        1.0000    0.68669   0.75941   0.99230   Biso      1.000     O          -0.6011770000000001           
         O4        1.0000    0.18750   0.37450   0.42360   Biso      1.000     O          -0.488208           
         O5        1.0000    0.07272   0.31331   0.99230   Biso      1.000     O          -0.6011770000000001           
         O6        1.0000    0.25530   0.74425   0.56180   Biso      1.000     O          -0.553628           
         O7        1.0000    0.25400   0.74570   0.27410   Biso      1.000     O          -0.355549           
         O8        1.0000    0.96054   0.32166   0.15540   Biso      1.000     O          -0.643947           
         O9        1.0000    0.18700   0.81250   0.42360   Biso      1.000     O          -0.488208           
         O10       1.0000    0.36123   0.32137   0.15560   Biso      1.000     O          -0.649207           
         O11       1.0000    0.67834   0.63888   0.15540   Biso      1.000     O          -0.643947           
         O12       1.0000    0.24091   0.31327   0.99250   Biso      1.000     O          -0.595241           
         O13       1.0000    0.74570   0.49170   0.77410   Biso      1.000     O          -0.35555  
         O14       1.0000    0.48895   0.74470   0.56180   Biso      1.000     O          -0.553629           
         O15       1.0000    0.31327   0.07236   0.49250   Biso      1.000     O          -0.59524  
         O16       1.0000    0.32137   0.96014   0.65560   Biso      1.000     O          -0.6492060000000001           
         O17       1.0000    0.75941   0.07272   0.49230   Biso      1.000     O          -0.6011770000000001           
         O18       1.0000    0.63888   0.96054   0.65540   Biso      1.000     O          -0.643947           
         O19       1.0000    0.37450   0.18700   0.92360   Biso      1.000     O          -0.488208           
         O20       1.0000    0.51105   0.25530   0.06180   Biso      1.000     O          -0.553628           
         O21       1.0000    0.50830   0.25400   0.77410   Biso      1.000     O          -0.35555  
         O22       1.0000    0.92764   0.24091   0.49250   Biso      1.000     O          -0.595241           
         O23       1.0000    0.03986   0.36123   0.65560   Biso      1.000     O          -0.649207           
         O24       1.0000    0.92728   0.68669   0.49230   Biso      1.000     O          -0.6011770000000001           
         O25       1.0000    0.03946   0.67834   0.65540   Biso      1.000     O          -0.643947           
         O26       1.0000    0.81300   0.18750   0.92360   Biso      1.000     O          -0.488208           
         O27       1.0000    0.49170   0.74600   0.27410   Biso      1.000     O          -0.35555  
         O28       1.0000    0.74470   0.25575   0.06180   Biso      1.000     O          -0.553628           
         O29       1.0000    0.75909   0.68673   0.49250   Biso      1.000     O          -0.595241           
         O30       1.0000    0.63877   0.67863   0.65560   Biso      1.000     O          -0.649207           
         O31       1.0000    0.31331   0.24059   0.49230   Biso      1.000     O          -0.6011770000000001           
         O32       1.0000    0.32166   0.36112   0.65540   Biso      1.000     O          -0.643947           
         O33       1.0000    0.81250   0.62550   0.92360   Biso      1.000     O          -0.488208           
         O34       1.0000    0.74425   0.48895   0.06180   Biso      1.000     O          -0.553629           
         O35       1.0000    0.25575   0.51105   0.56180   Biso      1.000     O          -0.553629           
         O36       1.0000    0.68673   0.92764   0.99250   Biso      1.000     O          -0.595241           
         O37       1.0000    0.67863   0.03986   0.15560   Biso      1.000     O          -0.6492060000000001           
         O38       1.0000    0.24059   0.92728   0.99230   Biso      1.000     O          -0.601178           
         O39       1.0000    0.36112   0.03946   0.15540   Biso      1.000     O          -0.643947           
         O40       1.0000    0.62550   0.81300   0.42360   Biso      1.000     O          -0.488208           
         O41       1.0000    0.74600   0.25430   0.77410   Biso      1.000     O          -0.355549           
         O42       1.0000    0.25430   0.50830   0.27410   Biso      1.000     O          -0.35555 