
##########################################################################
#               Crystallographic Information Format file
#               Produced by PyCifRW module
#
#  This is a CIF file.  CIF has been adopted by the International
#  Union of Crystallography as the standard for data archiving and
#  transmission.
#
#  For information on this file format, follow the CIF links at
#  http://www.iucr.org
##########################################################################

data_image0

_cell_length_a                          13.2205
_cell_length_b                          13.9973
_cell_length_c                          14.9
_cell_angle_alpha                       99.68
_cell_angle_beta                        91.009
_cell_angle_gamma                       117.103
_symmetry_space_group_name_H-M          'P 1'
_symmetry_int_tables_number             1
loop_
  _symmetry_equiv_pos_as_xyz
         'x, y, z' 
loop_
  _atom_site_label
  _atom_site_occupancy
  _atom_site_fract_x
  _atom_site_fract_y
  _atom_site_fract_z
  _atom_site_thermal_displace_type
  _atom_site_B_iso_or_equiv
  _atom_site_type_symbol
  _atom_site_charge
         C1        1.0000    0.94150   0.08970   0.87300   Biso      1.000     C          0.620896  
         C2        1.0000    0.12190   0.95210   0.88530   Biso      1.000     C          0.605887  
         C3        1.0000    0.09810   0.86970   0.20120   Biso      1.000     C          0.004142  
         C4        1.0000    0.19440   0.94470   0.26310   Biso      1.000     C          -0.093248           
         C5        1.0000    0.23690   0.93280   0.75860   Biso      1.000     C          -0.099478           
         C6        1.0000    0.23000   0.90810   0.33190   Biso      1.000     C          0.025594  
         C7        1.0000    0.17300   0.79920   0.34180   Biso      1.000     C          -0.248117           
         C8        1.0000    0.03910   0.76200   0.21230   Biso      1.000     C          -0.183402           
         C9        1.0000    0.14160   0.88290   0.80570   Biso      1.000     C          0.002524  
         C10       1.0000    0.05850   0.91030   0.12700   Biso      1.000     C          0.620895  
         C11       1.0000    0.06890   0.77200   0.78100   Biso      1.000     C          -0.188246           
         C12       1.0000    0.09510   0.70890   0.71120   Biso      1.000     C          0.285555  
         C13       1.0000    0.18870   0.75630   0.66550   Biso      1.000     C          -0.251616           
         C14       1.0000    0.25900   0.87070   0.68800   Biso      1.000     C          0.025913  
         C15       1.0000    0.35720   0.92350   0.63330   Biso      1.000     C          0.604875  
         C16       1.0000    0.33020   0.98820   0.39990   Biso      1.000     C          0.583095  
         C17       1.0000    0.07560   0.72620   0.28210   Biso      1.000     C          0.291692  
         C18       1.0000    0.05220   0.52920   0.63230   Biso      1.000     C          -0.041818           
         C19       1.0000    0.80560   0.05530   0.73690   Biso      1.000     C          -0.09325  
         C20       1.0000    0.82700   0.20080   0.65820   Biso      1.000     C          -0.248117           
         C21       1.0000    0.64280   0.07650   0.36670   Biso      1.000     C          0.604872  
         C22       1.0000    0.74100   0.12930   0.31200   Biso      1.000     C          0.025907  
         C23       1.0000    0.81130   0.24370   0.33450   Biso      1.000     C          -0.251624           
         C24       1.0000    0.77000   0.09190   0.66810   Biso      1.000     C          0.025595  
         C25       1.0000    0.90490   0.29110   0.28880   Biso      1.000     C          0.285561  
         C26       1.0000    0.93110   0.22800   0.21900   Biso      1.000     C          -0.188249           
         C27       1.0000    0.96560   0.41260   0.62930   Biso      1.000     C          -0.043237           
         C28       1.0000    0.66980   0.01180   0.60010   Biso      1.000     C          0.583096  
         C29       1.0000    0.76310   0.06720   0.24140   Biso      1.000     C          -0.099473           
         C30       1.0000    0.90190   0.13030   0.79880   Biso      1.000     C          0.004143  
         C31       1.0000    0.87810   0.04790   0.11470   Biso      1.000     C          0.605887  
         C32       1.0000    0.94780   0.47080   0.36770   Biso      1.000     C          -0.041817           
         C33       1.0000    0.96090   0.23800   0.78770   Biso      1.000     C          -0.183404           
         C34       1.0000    0.92440   0.27380   0.71790   Biso      1.000     C          0.291692  
         C35       1.0000    0.03440   0.58740   0.37070   Biso      1.000     C          -0.043234           
         C36       1.0000    0.85840   0.11710   0.19430   Biso      1.000     C          0.002526  
         Eu1       1.0000    0.84477   0.85195   0.96131   Biso      1.000     Eu          1.369809  
         Eu2       1.0000    0.51026   0.14677   0.54037   Biso      1.000     Eu          1.360542  
         Eu3       1.0000    0.48974   0.85323   0.45963   Biso      1.000     Eu          1.360538  
         Eu4       1.0000    0.15523   0.14805   0.03869   Biso      1.000     Eu          1.369809  
         H1        1.0000    0.23340   0.01770   0.25770   Biso      1.000     H          0.134362  
         H2        1.0000    0.11090   0.59450   0.37440   Biso      1.000     H          0.109627  
         H3        1.0000    0.97430   0.71300   0.17250   Biso      1.000     H          0.15368   
         H4        1.0000    0.28500   0.00780   0.77510   Biso      1.000     H          0.137154  
         H5        1.0000    0.02890   0.63460   0.42390   Biso      1.000     H          0.109738  
         H6        1.0000    0.19950   0.77570   0.38740   Biso      1.000     H          0.14221   
         H7        1.0000    0.00360   0.73960   0.81020   Biso      1.000     H          0.150109  
         H8        1.0000    0.20590   0.71350   0.61990   Biso      1.000     H          0.134881  
         H9        1.0000    0.97110   0.36540   0.57610   Biso      1.000     H          0.109738  
         H10       1.0000    0.05310   0.54670   0.57190   Biso      1.000     H          0.097734  
         H11       1.0000    0.88910   0.40550   0.62560   Biso      1.000     H          0.109628  
         H12       1.0000    0.94690   0.45330   0.42810   Biso      1.000     H          0.097733  
         H13       1.0000    0.02570   0.28700   0.82750   Biso      1.000     H          0.15368   
         H14       1.0000    0.71500   0.99220   0.22490   Biso      1.000     H          0.137154  
         H15       1.0000    0.99640   0.26040   0.18980   Biso      1.000     H          0.150109  
         H16       1.0000    0.76660   0.98230   0.74230   Biso      1.000     H          0.134363  
         H17       1.0000    0.79410   0.28650   0.38010   Biso      1.000     H          0.134881  
         H18       1.0000    0.80050   0.22430   0.61260   Biso      1.000     H          0.142211  
         H19       1.0000    0.87220   0.45950   0.34810   Biso      1.000     H          0.115349  
         H20       1.0000    0.12780   0.54050   0.65190   Biso      1.000     H          0.115349  
         N1        1.0000    0.65920   0.36040   0.49420   Biso      1.000     N          0.732947  
         N2        1.0000    0.26230   0.36240   0.98370   Biso      1.000     N          0.720881  
         N3        1.0000    0.34080   0.63960   0.50580   Biso      1.000     N          0.732954  
         N4        1.0000    0.73770   0.63760   0.01630   Biso      1.000     N          0.720876  
         O1        1.0000    0.02680   0.91070   0.91770   Biso      1.000     O          -0.622916           
         O2        1.0000    0.87210   0.99770   0.88840   Biso      1.000     O          -0.595739           
         O3        1.0000    0.04120   0.14960   0.91180   Biso      1.000     O          -0.576882           
         O4        1.0000    0.98870   0.38160   0.71220   Biso      1.000     O          -0.139916           
         O5        1.0000    0.02130   0.59750   0.69530   Biso      1.000     O          -0.155201           
         O6        1.0000    0.70040   0.55150   0.04530   Biso      1.000     O          -0.320131           
         O7        1.0000    0.55290   0.31290   0.47150   Biso      1.000     O          -0.423466           
         O8        1.0000    0.69490   0.31840   0.54780   Biso      1.000     O          -0.494577           
         O9        1.0000    0.72440   0.44240   0.46630   Biso      1.000     O          -0.37804  
         O10       1.0000    0.39100   0.02380   0.63110   Biso      1.000     O          -0.572623           
         O11       1.0000    0.39850   0.86460   0.59360   Biso      1.000     O          -0.549839           
         O12       1.0000    0.20030   0.04720   0.91580   Biso      1.000     O          -0.543032           
         O13       1.0000    0.80520   0.65590   0.95600   Biso      1.000     O          -0.435134           
         O14       1.0000    0.71010   0.71070   0.04530   Biso      1.000     O          -0.40325  
         O15       1.0000    0.35320   0.08770   0.41880   Biso      1.000     O          -0.515682           
         O16       1.0000    0.38830   0.95350   0.44120   Biso      1.000     O          -0.643602           
         O17       1.0000    0.44710   0.68710   0.52850   Biso      1.000     O          -0.423466           
         O18       1.0000    0.30510   0.68160   0.45220   Biso      1.000     O          -0.494578           
         O19       1.0000    0.27560   0.55760   0.53370   Biso      1.000     O          -0.378041           
         O20       1.0000    0.60900   0.97620   0.36890   Biso      1.000     O          -0.572619           
         O21       1.0000    0.60150   0.13540   0.40640   Biso      1.000     O          -0.549834           
         O22       1.0000    0.79970   0.95280   0.08420   Biso      1.000     O          -0.543033           
         O23       1.0000    0.61170   0.04650   0.55880   Biso      1.000     O          -0.643603           
         O24       1.0000    0.97320   0.08930   0.08230   Biso      1.000     O          -0.622917           
         O25       1.0000    0.19480   0.34410   0.04400   Biso      1.000     O          -0.435135           
         O26       1.0000    0.29960   0.44850   0.95470   Biso      1.000     O          -0.320133           
         O27       1.0000    0.97870   0.40250   0.30470   Biso      1.000     O          -0.155203           
         O28       1.0000    0.01130   0.61840   0.28780   Biso      1.000     O          -0.139915           
         O29       1.0000    0.95880   0.85040   0.08820   Biso      1.000     O          -0.576879           
         O30       1.0000    0.12790   0.00230   0.11160   Biso      1.000     O          -0.595739           
         O31       1.0000    0.28990   0.28930   0.95470   Biso      1.000     O          -0.403252           
         O32       1.0000    0.64680   0.91230   0.58120   Biso      1.000     O          -0.515684 