
##########################################################################
#               Crystallographic Information Format file
#               Produced by PyCifRW module
#
#  This is a CIF file.  CIF has been adopted by the International
#  Union of Crystallography as the standard for data archiving and
#  transmission.
#
#  For information on this file format, follow the CIF links at
#  http://www.iucr.org
##########################################################################

data_image0

_cell_length_a                          13.009
_cell_length_b                          13.7701
_cell_length_c                          15.0439
_cell_angle_alpha                       99.513
_cell_angle_beta                        90.402
_cell_angle_gamma                       116.522
_symmetry_space_group_name_H-M          'P 1'
_symmetry_int_tables_number             1
loop_
  _symmetry_equiv_pos_as_xyz
         'x, y, z' 
loop_
  _atom_site_label
  _atom_site_occupancy
  _atom_site_fract_x
  _atom_site_fract_y
  _atom_site_fract_z
  _atom_site_thermal_displace_type
  _atom_site_B_iso_or_equiv
  _atom_site_type_symbol
  _atom_site_charge
         C1        1.0000    0.13670   0.07460   0.86700   Biso      1.000     C          0.692792  
         C2        1.0000    0.82910   0.98670   0.90440   Biso      1.000     C          0.647524  
         C3        1.0000    0.56210   0.92200   0.63810   Biso      1.000     C          0.688451  
         C4        1.0000    0.43790   0.07800   0.36190   Biso      1.000     C          0.688451  
         C5        1.0000    0.17090   0.01330   0.09560   Biso      1.000     C          0.647525  
         C6        1.0000    0.32700   0.20100   0.15720   Biso      1.000     C          -0.272669           
         C7        1.0000    0.86330   0.92540   0.13300   Biso      1.000     C          0.692793  
         C8        1.0000    0.76240   0.87460   0.18990   Biso      1.000     C          0.00325   
         C9        1.0000    0.69310   0.76030   0.17090   Biso      1.000     C          -0.249415           
         C10       1.0000    0.60030   0.71380   0.21880   Biso      1.000     C          0.279302  
         C11       1.0000    0.57910   0.77920   0.29120   Biso      1.000     C          -0.20902300000000001          
         C12       1.0000    0.65120   0.89240   0.31400   Biso      1.000     C          -0.011176           
         C13       1.0000    0.74340   0.93980   0.25950   Biso      1.000     C          -0.149676           
         C14       1.0000    0.63570   0.96540   0.39140   Biso      1.000     C          0.670656  
         C15       1.0000    0.55070   0.53420   0.13780   Biso      1.000     C          -0.034834           
         C16       1.0000    0.46180   0.41710   0.13430   Biso      1.000     C          -0.034401999999999995         
         C17       1.0000    0.42490   0.27290   0.21640   Biso      1.000     C          0.27984699999999996           
         C18       1.0000    0.45860   0.23320   0.28450   Biso      1.000     C          -0.190251           
         C19       1.0000    0.40020   0.12320   0.29380   Biso      1.000     C          -0.005155           
         C20       1.0000    0.30560   0.05050   0.23080   Biso      1.000     C          -0.150785           
         C21       1.0000    0.67300   0.79900   0.84280   Biso      1.000     C          -0.272669           
         C22       1.0000    0.73030   0.91030   0.83710   Biso      1.000     C          -0.000741           
         C23       1.0000    0.26970   0.08970   0.16290   Biso      1.000     C          -0.000741           
         C24       1.0000    0.69440   0.94950   0.76920   Biso      1.000     C          -0.150785           
         C25       1.0000    0.57510   0.72710   0.78360   Biso      1.000     C          0.27984699999999996           
         C26       1.0000    0.44930   0.46580   0.86220   Biso      1.000     C          -0.034834           
         C27       1.0000    0.36430   0.03460   0.60860   Biso      1.000     C          0.670657  
         C28       1.0000    0.25660   0.06020   0.74050   Biso      1.000     C          -0.14968499999999998          
         C29       1.0000    0.34880   0.10760   0.68600   Biso      1.000     C          -0.011175           
         C30       1.0000    0.42090   0.22080   0.70880   Biso      1.000     C          -0.20902300000000001          
         C31       1.0000    0.53820   0.58290   0.86570   Biso      1.000     C          -0.034401999999999995         
         C32       1.0000    0.54140   0.76680   0.71550   Biso      1.000     C          -0.190251           
         C33       1.0000    0.59980   0.87680   0.70620   Biso      1.000     C          -0.005155           
         C34       1.0000    0.23760   0.12540   0.81010   Biso      1.000     C          0.003258  
         C35       1.0000    0.30690   0.23970   0.82910   Biso      1.000     C          -0.249416           
         C36       1.0000    0.39970   0.28620   0.78120   Biso      1.000     C          0.279303  
         H1        1.0000    0.45090   0.44480   0.92040   Biso      1.000     H          0.086751  
         H2        1.0000    0.71020   0.71610   0.12590   Biso      1.000     H          0.13259300000000002           
         H3        1.0000    0.51640   0.74670   0.32410   Biso      1.000     H          0.13678099999999999           
         H4        1.0000    0.20920   0.98430   0.72850   Biso      1.000     H          0.133742  
         H5        1.0000    0.38530   0.41260   0.13480   Biso      1.000     H          0.102578  
         H6        1.0000    0.52220   0.28160   0.32500   Biso      1.000     H          0.151274  
         H7        1.0000    0.48360   0.25330   0.67590   Biso      1.000     H          0.13678099999999999           
         H8        1.0000    0.37290   0.45810   0.84760   Biso      1.000     H          0.10304100000000001           
         H9        1.0000    0.62710   0.54190   0.15240   Biso      1.000     H          0.10304100000000001           
         H10       1.0000    0.28980   0.28390   0.87410   Biso      1.000     H          0.13259300000000002           
         H11       1.0000    0.46440   0.37030   0.07950   Biso      1.000     H          0.097512  
         H12       1.0000    0.79080   0.01570   0.27150   Biso      1.000     H          0.133742  
         H13       1.0000    0.54910   0.55520   0.07960   Biso      1.000     H          0.086751  
         H14       1.0000    0.53560   0.62970   0.92050   Biso      1.000     H          0.097512  
         H15       1.0000    0.30020   0.22760   0.11420   Biso      1.000     H          0.129253  
         H16       1.0000    0.69980   0.77240   0.88580   Biso      1.000     H          0.129253  
         H17       1.0000    0.47780   0.71840   0.67500   Biso      1.000     H          0.151274  
         H18       1.0000    0.73310   0.02400   0.76570   Biso      1.000     H          0.129715  
         H19       1.0000    0.26690   0.97600   0.23430   Biso      1.000     H          0.129715  
         H20       1.0000    0.61470   0.58740   0.86520   Biso      1.000     H          0.102578  
         N1        1.0000    0.15630   0.36390   0.99310   Biso      1.000     N          0.7748229999999999  
         N2        1.0000    0.84370   0.63610   0.00690   Biso      1.000     N          0.7748229999999999  
         N3        1.0000    0.27720   0.63660   0.51200   Biso      1.000     N          0.77766   
         N4        1.0000    0.72280   0.36340   0.48800   Biso      1.000     N          0.77766   
         O1        1.0000    0.19600   0.32130   0.04270   Biso      1.000     O          -0.57889  
         O2        1.0000    0.71410   0.06100   0.41700   Biso      1.000     O          -0.605336           
         O3        1.0000    0.53990   0.13770   0.40230   Biso      1.000     O          -0.651079           
         O4        1.0000    0.37020   0.98500   0.37550   Biso      1.000     O          -0.7046140000000001           
         O5        1.0000    0.14910   0.91130   0.07540   Biso      1.000     O          -0.607448           
         O6        1.0000    0.11320   0.04890   0.05740   Biso      1.000     O          -0.748659           
         O7        1.0000    0.52520   0.60260   0.20510   Biso      1.000     O          -0.19295  
         O8        1.0000    0.90210   0.86390   0.09370   Biso      1.000     O          -0.6285270000000001           
         O9        1.0000    0.89630   0.02550   0.12880   Biso      1.000     O          -0.712797           
         O10       1.0000    0.21680   0.44560   0.96350   Biso      1.000     O          -0.35830300000000004          
         O11       1.0000    0.04730   0.31720   0.97550   Biso      1.000     O          -0.549208           
         O12       1.0000    0.48790   0.38160   0.21300   Biso      1.000     O          -0.186227           
         O13       1.0000    0.24020   0.54840   0.53750   Biso      1.000     O          -0.362743           
         O14       1.0000    0.75980   0.45160   0.46250   Biso      1.000     O          -0.362743           
         O15       1.0000    0.95270   0.68280   0.02450   Biso      1.000     O          -0.549208           
         O16       1.0000    0.80400   0.67870   0.95730   Biso      1.000     O          -0.57889  
         O17       1.0000    0.78320   0.55440   0.03650   Biso      1.000     O          -0.35830300000000004          
         O18       1.0000    0.10370   0.97450   0.87120   Biso      1.000     O          -0.712797           
         O19       1.0000    0.09790   0.13610   0.90630   Biso      1.000     O          -0.6285270000000001           
         O20       1.0000    0.47480   0.39740   0.79490   Biso      1.000     O          -0.19295  
         O21       1.0000    0.51210   0.61840   0.78700   Biso      1.000     O          -0.186227           
         O22       1.0000    0.63690   0.32860   0.53160   Biso      1.000     O          -0.54371  
         O23       1.0000    0.88680   0.95110   0.94260   Biso      1.000     O          -0.748659           
         O24       1.0000    0.62980   0.01500   0.62450   Biso      1.000     O          -0.7046140000000001           
         O25       1.0000    0.46010   0.86230   0.59770   Biso      1.000     O          -0.651079           
         O26       1.0000    0.28590   0.93900   0.58300   Biso      1.000     O          -0.605336           
         O27       1.0000    0.45400   0.07320   0.56810   Biso      1.000     O          -0.761617           
         O28       1.0000    0.22060   0.69290   0.52180   Biso      1.000     O          -0.5927600000000001           
         O29       1.0000    0.36310   0.67140   0.46840   Biso      1.000     O          -0.54371  
         O30       1.0000    0.54600   0.92680   0.43190   Biso      1.000     O          -0.761616           
         O31       1.0000    0.85090   0.08870   0.92460   Biso      1.000     O          -0.607448           
         O32       1.0000    0.77940   0.30710   0.47820   Biso      1.000     O          -0.5927600000000001           
         Tb1       1.0000    0.35606   0.85596   0.46486   Biso      1.000     Tb          2.041491  
         Tb2       1.0000    0.99092   0.85127   0.96030   Biso      1.000     Tb          2.033957  
         Tb3       1.0000    0.00908   0.14873   0.03970   Biso      1.000     Tb          2.033957  
         Tb4       1.0000    0.64394   0.14404   0.53514   Biso      1.000     Tb          2.041491 