
##########################################################################
#               Crystallographic Information Format file
#               Produced by PyCifRW module
#
#  This is a CIF file.  CIF has been adopted by the International
#  Union of Crystallography as the standard for data archiving and
#  transmission.
#
#  For information on this file format, follow the CIF links at
#  http://www.iucr.org
##########################################################################

data_image0

_cell_length_a                          9.6827
_cell_length_b                          27.686
_cell_length_c                          9.105
_cell_angle_alpha                       90
_cell_angle_beta                        121.794
_cell_angle_gamma                       90
_symmetry_space_group_name_H-M          'P 1'
_symmetry_int_tables_number             1
loop_
  _symmetry_equiv_pos_as_xyz
         'x, y, z' 
loop_
  _atom_site_label
  _atom_site_occupancy
  _atom_site_fract_x
  _atom_site_fract_y
  _atom_site_fract_z
  _atom_site_thermal_displace_type
  _atom_site_B_iso_or_equiv
  _atom_site_type_symbol
  _atom_site_charge
         C1        1.0000    0.33600   0.28340   0.56600   Biso      1.000     C          0.729018  
         C2        1.0000    0.88800   0.95720   0.42100   Biso      1.000     C          -0.332136           
         C3        1.0000    0.04900   0.96360   0.59000   Biso      1.000     C          -0.306373           
         C4        1.0000    0.20100   0.96990   0.56700   Biso      1.000     C          0.685605  
         C5        1.0000    0.43400   0.12540   0.90400   Biso      1.000     C          0.48142799999999997           
         C6        1.0000    0.53500   0.12490   0.10600   Biso      1.000     C          0.564379  
         C7        1.0000    0.64700   0.28040   0.43200   Biso      1.000     C          0.690087  
         C8        1.0000    0.48800   0.28600   0.42200   Biso      1.000     C          -0.30098  
         C9        1.0000    0.48500   0.29530   0.58000   Biso      1.000     C          -0.315801           
         C10       1.0000    0.25200   0.53260   0.93300   Biso      1.000     C          0.7352989999999999  
         C11       1.0000    0.38800   0.54280   0.92100   Biso      1.000     C          -0.332136           
         C12       1.0000    0.54900   0.53640   0.09000   Biso      1.000     C          -0.306373           
         C13       1.0000    0.70100   0.53010   0.06700   Biso      1.000     C          0.685605  
         C14       1.0000    0.93400   0.37460   0.40400   Biso      1.000     C          0.48142799999999997           
         C15       1.0000    0.03500   0.37510   0.60600   Biso      1.000     C          0.564379  
         C16       1.0000    0.14700   0.21960   0.93200   Biso      1.000     C          0.690087  
         C17       1.0000    0.98800   0.21400   0.92200   Biso      1.000     C          -0.300979           
         C18       1.0000    0.98500   0.20470   0.08000   Biso      1.000     C          -0.315801           
         C19       1.0000    0.83600   0.21660   0.06600   Biso      1.000     C          0.729018  
         C20       1.0000    0.75200   0.03260   0.93300   Biso      1.000     C          0.7352989999999999  
         C21       1.0000    0.88800   0.04280   0.92100   Biso      1.000     C          -0.332136           
         C22       1.0000    0.04900   0.03640   0.09000   Biso      1.000     C          -0.306373           
         C23       1.0000    0.20100   0.03010   0.06700   Biso      1.000     C          0.685605  
         C24       1.0000    0.43400   0.87460   0.40400   Biso      1.000     C          0.48142799999999997           
         C25       1.0000    0.53500   0.87510   0.60600   Biso      1.000     C          0.564379  
         C26       1.0000    0.64700   0.71960   0.93200   Biso      1.000     C          0.690087  
         C27       1.0000    0.48800   0.71400   0.92200   Biso      1.000     C          -0.30098  
         C28       1.0000    0.48500   0.70470   0.08000   Biso      1.000     C          -0.315801           
         C29       1.0000    0.75200   0.96740   0.43300   Biso      1.000     C          0.7352989999999999  
         C30       1.0000    0.83600   0.78340   0.56600   Biso      1.000     C          0.729018  
         C31       1.0000    0.33600   0.71660   0.06600   Biso      1.000     C          0.729018  
         C32       1.0000    0.93400   0.62540   0.90400   Biso      1.000     C          0.48142799999999997           
         C33       1.0000    0.54900   0.46360   0.59000   Biso      1.000     C          -0.306373           
         C34       1.0000    0.98800   0.78600   0.42200   Biso      1.000     C          -0.30098  
         C35       1.0000    0.70100   0.46990   0.56700   Biso      1.000     C          0.685605  
         C36       1.0000    0.14700   0.78040   0.43200   Biso      1.000     C          0.690088  
         C37       1.0000    0.98500   0.79530   0.58000   Biso      1.000     C          -0.315801           
         C38       1.0000    0.03500   0.62490   0.10600   Biso      1.000     C          0.564379  
         C39       1.0000    0.25200   0.46740   0.43300   Biso      1.000     C          0.7352989999999999  
         C40       1.0000    0.38800   0.45720   0.42100   Biso      1.000     C          -0.332136           
         H1        1.0000    0.54160   0.50770   0.14990   Biso      1.000     H          0.14596199999999998           
         H2        1.0000    0.00800   0.82990   0.61010   Biso      1.000     H          0.144449  
         H3        1.0000    0.56780   0.56490   0.16390   Biso      1.000     H          0.134351  
         H4        1.0000    0.92770   0.18730   0.84080   Biso      1.000     H          0.139428  
         H5        1.0000    0.92420   0.24390   0.86930   Biso      1.000     H          0.14617   
         H6        1.0000    0.37950   0.57660   0.88160   Biso      1.000     H          0.14949400000000002           
         H7        1.0000    0.38550   0.52150   0.83300   Biso      1.000     H          0.139102  
         H8        1.0000    0.54160   0.49230   0.64990   Biso      1.000     H          0.14596199999999998           
         H9        1.0000    0.07340   0.22350   0.17650   Biso      1.000     H          0.130704  
         H10       1.0000    0.56780   0.43510   0.66390   Biso      1.000     H          0.134351  
         H11       1.0000    0.50800   0.67010   0.11010   Biso      1.000     H          0.14445   
         H12       1.0000    0.37950   0.42340   0.38160   Biso      1.000     H          0.14949400000000002           
         H13       1.0000    0.88550   0.02150   0.83300   Biso      1.000     H          0.139102  
         H14       1.0000    0.87950   0.07660   0.88160   Biso      1.000     H          0.14949500000000002           
         H15       1.0000    0.38550   0.47850   0.33300   Biso      1.000     H          0.139102  
         H16       1.0000    0.06780   0.06490   0.16390   Biso      1.000     H          0.134351  
         H17       1.0000    0.04160   0.00770   0.14990   Biso      1.000     H          0.14596199999999998           
         H18       1.0000    0.42770   0.68730   0.84080   Biso      1.000     H          0.139429  
         H19       1.0000    0.42420   0.74390   0.86930   Biso      1.000     H          0.14617   
         H20       1.0000    0.57340   0.72350   0.17650   Biso      1.000     H          0.130704  
         H21       1.0000    0.00800   0.17010   0.11010   Biso      1.000     H          0.14445   
         H22       1.0000    0.50800   0.32990   0.61010   Biso      1.000     H          0.14445   
         H23       1.0000    0.07340   0.77650   0.67650   Biso      1.000     H          0.130704  
         H24       1.0000    0.57340   0.27650   0.67650   Biso      1.000     H          0.130704  
         H25       1.0000    0.04160   0.99230   0.64990   Biso      1.000     H          0.14596199999999998           
         H26       1.0000    0.06780   0.93510   0.66390   Biso      1.000     H          0.134351  
         H27       1.0000    0.92770   0.81270   0.34080   Biso      1.000     H          0.139428  
         H28       1.0000    0.87950   0.92340   0.38160   Biso      1.000     H          0.14949500000000002           
         H29       1.0000    0.42420   0.25610   0.36930   Biso      1.000     H          0.14617   
         H30       1.0000    0.42770   0.31270   0.34080   Biso      1.000     H          0.139429  
         H31       1.0000    0.88550   0.97850   0.33300   Biso      1.000     H          0.139102  
         H32       1.0000    0.92420   0.75610   0.36930   Biso      1.000     H          0.14617   
         Nd1       1.0000    0.97432   0.50916   0.99873   Biso      1.000     Nd          2.093789  
         Nd2       1.0000    0.47432   0.99084   0.49873   Biso      1.000     Nd          2.093788  
         Nd3       1.0000    0.49200   0.24104   0.99735   Biso      1.000     Nd          2.092198  
         Nd4       1.0000    0.99200   0.25896   0.49735   Biso      1.000     Nd          2.092198  
         Nd5       1.0000    0.49200   0.75896   0.49735   Biso      1.000     Nd          2.092198  
         Nd6       1.0000    0.97432   0.49084   0.49873   Biso      1.000     Nd          2.093788  
         Nd7       1.0000    0.47432   0.00916   0.99873   Biso      1.000     Nd          2.093788  
         Nd8       1.0000    0.99200   0.74104   0.99735   Biso      1.000     Nd          2.092198  
         O1        1.0000    0.64600   0.73340   0.79900   Biso      1.000     O          -0.74943  
         O2        1.0000    0.40600   0.08370   0.82600   Biso      1.000     O          -0.611452           
         O3        1.0000    0.12400   0.48330   0.29900   Biso      1.000     O          -0.795083           
         O4        1.0000    0.62400   0.98330   0.29900   Biso      1.000     O          -0.795083           
         O5        1.0000    0.76100   0.96150   0.57000   Biso      1.000     O          -0.602798           
         O6        1.0000    0.26100   0.46150   0.57000   Biso      1.000     O          -0.602798           
         O7        1.0000    0.82500   0.48390   0.69700   Biso      1.000     O          -0.731057           
         O8        1.0000    0.34400   0.73470   0.19700   Biso      1.000     O          -0.770663           
         O9        1.0000    0.20000   0.96010   0.42900   Biso      1.000     O          -0.6285270000000001           
         O10       1.0000    0.40600   0.91630   0.32600   Biso      1.000     O          -0.611452           
         O11       1.0000    0.55900   0.91390   0.67200   Biso      1.000     O          -0.598425           
         O12       1.0000    0.32500   0.98390   0.69700   Biso      1.000     O          -0.731057           
         O13       1.0000    0.70000   0.46010   0.42900   Biso      1.000     O          -0.6285270000000001           
         O14       1.0000    0.20600   0.70980   0.92900   Biso      1.000     O          -0.6164850000000001           
         O15       1.0000    0.20000   0.03990   0.92900   Biso      1.000     O          -0.6285270000000001           
         O16       1.0000    0.39400   0.83380   0.32600   Biso      1.000     O          -0.589823           
         O17       1.0000    0.58600   0.83540   0.67300   Biso      1.000     O          -0.62085  
         O18       1.0000    0.78700   0.70860   0.06900   Biso      1.000     O          -0.631582           
         O19       1.0000    0.32500   0.01610   0.19700   Biso      1.000     O          -0.731057           
         O20       1.0000    0.14600   0.76660   0.29900   Biso      1.000     O          -0.74943  
         O21       1.0000    0.62400   0.01670   0.79900   Biso      1.000     O          -0.795083           
         O22       1.0000    0.12400   0.51670   0.79900   Biso      1.000     O          -0.795083           
         O23       1.0000    0.26100   0.53850   0.07000   Biso      1.000     O          -0.602798           
         O24       1.0000    0.82500   0.51610   0.19700   Biso      1.000     O          -0.731057           
         O25       1.0000    0.70000   0.53990   0.92900   Biso      1.000     O          -0.6285270000000001           
         O26       1.0000    0.08600   0.66460   0.17300   Biso      1.000     O          -0.62085  
         O27       1.0000    0.89400   0.66620   0.82600   Biso      1.000     O          -0.589823           
         O28       1.0000    0.28700   0.79140   0.56900   Biso      1.000     O          -0.631582           
         O29       1.0000    0.70600   0.79020   0.42900   Biso      1.000     O          -0.6164850000000001           
         O30       1.0000    0.34400   0.26530   0.69700   Biso      1.000     O          -0.770663           
         O31       1.0000    0.90600   0.41630   0.32600   Biso      1.000     O          -0.611452           
         O32       1.0000    0.05900   0.41390   0.67200   Biso      1.000     O          -0.598425           
         O33       1.0000    0.20600   0.29020   0.42900   Biso      1.000     O          -0.6164850000000001           
         O34       1.0000    0.05900   0.58610   0.17200   Biso      1.000     O          -0.598425           
         O35       1.0000    0.89400   0.33380   0.32600   Biso      1.000     O          -0.589823           
         O36       1.0000    0.08600   0.33540   0.67300   Biso      1.000     O          -0.62085  
         O37       1.0000    0.14600   0.23340   0.79900   Biso      1.000     O          -0.74943  
         O38       1.0000    0.28700   0.20860   0.06900   Biso      1.000     O          -0.631582           
         O39       1.0000    0.70600   0.20980   0.92900   Biso      1.000     O          -0.6164850000000001           
         O40       1.0000    0.84400   0.23470   0.19700   Biso      1.000     O          -0.770663           
         O41       1.0000    0.90600   0.58370   0.82600   Biso      1.000     O          -0.611452           
         O42       1.0000    0.78700   0.29140   0.56900   Biso      1.000     O          -0.631582           
         O43       1.0000    0.64600   0.26660   0.29900   Biso      1.000     O          -0.74943  
         O44       1.0000    0.58600   0.16460   0.17300   Biso      1.000     O          -0.62085  
         O45       1.0000    0.39400   0.16620   0.82600   Biso      1.000     O          -0.589823           
         O46       1.0000    0.84400   0.76530   0.69700   Biso      1.000     O          -0.770663           
         O47       1.0000    0.76100   0.03850   0.07000   Biso      1.000     O          -0.602798           
         O48       1.0000    0.55900   0.08610   0.17200   Biso      1.000     O          -0.598425 