
##########################################################################
#               Crystallographic Information Format file
#               Produced by PyCifRW module
#
#  This is a CIF file.  CIF has been adopted by the International
#  Union of Crystallography as the standard for data archiving and
#  transmission.
#
#  For information on this file format, follow the CIF links at
#  http://www.iucr.org
##########################################################################

data_image0

_cell_length_a                          6.798
_cell_length_b                          13.285
_cell_length_c                          16.457
_cell_angle_alpha                       90
_cell_angle_beta                        90
_cell_angle_gamma                       90
_symmetry_space_group_name_H-M          'P 1'
_symmetry_int_tables_number             1
loop_
  _symmetry_equiv_pos_as_xyz
         'x, y, z' 
loop_
  _atom_site_label
  _atom_site_occupancy
  _atom_site_fract_x
  _atom_site_fract_y
  _atom_site_fract_z
  _atom_site_thermal_displace_type
  _atom_site_B_iso_or_equiv
  _atom_site_type_symbol
  _atom_site_charge
         C1        1.0000    0.77470   0.60950   0.90450   Biso      1.000     C          0.62562   
         C2        1.0000    0.42860   0.01030   0.19350   Biso      1.000     C          -0.107469           
         C3        1.0000    0.22530   0.10950   0.59550   Biso      1.000     C          0.625619  
         C4        1.0000    0.07840   0.98740   0.19760   Biso      1.000     C          -0.10371  
         C5        1.0000    0.24080   0.03490   0.66350   Biso      1.000     C          -0.017863           
         C6        1.0000    0.77420   0.65420   0.12740   Biso      1.000     C          0.634055  
         C7        1.0000    0.76300   0.59250   0.20260   Biso      1.000     C          -0.024353           
         C8        1.0000    0.07140   0.98970   0.69350   Biso      1.000     C          -0.107468           
         C9        1.0000    0.58230   0.57450   0.23990   Biso      1.000     C          -0.105023           
         C10       1.0000    0.93380   0.54930   0.23560   Biso      1.000     C          -0.105915           
         C11       1.0000    0.42160   0.01260   0.69760   Biso      1.000     C          -0.103709           
         C12       1.0000    0.92160   0.48740   0.30240   Biso      1.000     C          -0.103706           
         C13       1.0000    0.57140   0.51030   0.30650   Biso      1.000     C          -0.107469           
         C14       1.0000    0.74080   0.46510   0.33650   Biso      1.000     C          -0.017862           
         C15       1.0000    0.72530   0.39050   0.40450   Biso      1.000     C          0.625619  
         C16       1.0000    0.25920   0.96510   0.16350   Biso      1.000     C          -0.017861           
         C17       1.0000    0.06620   0.04930   0.26440   Biso      1.000     C          -0.10591  
         C18       1.0000    0.41770   0.07450   0.26010   Biso      1.000     C          -0.105023           
         C19       1.0000    0.75920   0.53490   0.83650   Biso      1.000     C          -0.017863           
         C20       1.0000    0.92860   0.48970   0.80650   Biso      1.000     C          -0.107469           
         C21       1.0000    0.27420   0.84580   0.87260   Biso      1.000     C          0.634055  
         C22       1.0000    0.57840   0.51260   0.80240   Biso      1.000     C          -0.103709           
         C23       1.0000    0.26300   0.90750   0.79740   Biso      1.000     C          -0.024353           
         C24       1.0000    0.56620   0.45070   0.73560   Biso      1.000     C          -0.10591  
         C25       1.0000    0.43380   0.95070   0.76440   Biso      1.000     C          -0.10591  
         C26       1.0000    0.91770   0.42550   0.73990   Biso      1.000     C          -0.105023           
         C27       1.0000    0.08230   0.92550   0.76010   Biso      1.000     C          -0.105023           
         C28       1.0000    0.73700   0.40750   0.70260   Biso      1.000     C          -0.024353           
         C29       1.0000    0.72580   0.34580   0.62740   Biso      1.000     C          0.634054  
         C30       1.0000    0.22580   0.15420   0.37260   Biso      1.000     C          0.634054  
         C31       1.0000    0.23700   0.09250   0.29740   Biso      1.000     C          -0.024353           
         C32       1.0000    0.27470   0.89050   0.09550   Biso      1.000     C          0.62562   
         H1        1.0000    0.96910   0.89470   0.77980   Biso      1.000     H          0.128751  
         H2        1.0000    0.53560   0.03960   0.67520   Biso      1.000     H          0.128729  
         H3        1.0000    0.55560   0.93750   0.78780   Biso      1.000     H          0.127751  
         H4        1.0000    0.95070   0.00230   0.66890   Biso      1.000     H          0.127666  
         H5        1.0000    0.05560   0.56250   0.21220   Biso      1.000     H          0.127751  
         H6        1.0000    0.96440   0.96040   0.17520   Biso      1.000     H          0.12873   
         H7        1.0000    0.46910   0.60530   0.22020   Biso      1.000     H          0.128751  
         H8        1.0000    0.03560   0.46040   0.32480   Biso      1.000     H          0.128729  
         H9        1.0000    0.45070   0.49770   0.33110   Biso      1.000     H          0.127667  
         H10       1.0000    0.94440   0.06250   0.28780   Biso      1.000     H          0.127751  
         H11       1.0000    0.53090   0.10530   0.27980   Biso      1.000     H          0.128751  
         H12       1.0000    0.03090   0.39470   0.72020   Biso      1.000     H          0.128751  
         H13       1.0000    0.44440   0.43750   0.71220   Biso      1.000     H          0.127751  
         H14       1.0000    0.46440   0.53960   0.82480   Biso      1.000     H          0.128729  
         H15       1.0000    0.04930   0.50230   0.83110   Biso      1.000     H          0.127666  
         H16       1.0000    0.54930   0.99770   0.16890   Biso      1.000     H          0.127667  
         O1        1.0000    0.05580   0.13200   0.57020   Biso      1.000     O          -0.596505           
         O2        1.0000    0.11460   0.85360   0.07060   Biso      1.000     O          -0.578378           
         O3        1.0000    0.44340   0.83070   0.90180   Biso      1.000     O          -0.606463           
         O4        1.0000    0.94340   0.66930   0.09820   Biso      1.000     O          -0.606464           
         O5        1.0000    0.11660   0.81380   0.90150   Biso      1.000     O          -0.575889           
         O6        1.0000    0.71630   0.18960   0.49040   Biso      1.000     O          -0.774065           
         O7        1.0000    0.44420   0.86800   0.07020   Biso      1.000     O          -0.596505           
         O8        1.0000    0.55580   0.36800   0.42980   Biso      1.000     O          -0.596505           
         O9        1.0000    0.78370   0.81040   0.99040   Biso      1.000     O          -0.774068           
         O10       1.0000    0.88540   0.35360   0.42940   Biso      1.000     O          -0.578377           
         O11       1.0000    0.61660   0.68620   0.09850   Biso      1.000     O          -0.575889           
         O12       1.0000    0.21630   0.31040   0.50960   Biso      1.000     O          -0.774067           
         O13       1.0000    0.05660   0.16930   0.40180   Biso      1.000     O          -0.606463           
         O14       1.0000    0.94420   0.63200   0.92980   Biso      1.000     O          -0.596506           
         O15       1.0000    0.55660   0.33070   0.59820   Biso      1.000     O          -0.606463           
         O16       1.0000    0.61460   0.64640   0.92940   Biso      1.000     O          -0.578377           
         O17       1.0000    0.88340   0.31380   0.59850   Biso      1.000     O          -0.575888           
         O18       1.0000    0.28370   0.68960   0.00960   Biso      1.000     O          -0.774067           
         O19       1.0000    0.38540   0.14640   0.57060   Biso      1.000     O          -0.578377           
         O20       1.0000    0.38340   0.18620   0.40150   Biso      1.000     O          -0.575888           
         V1        1.0000    0.43591   0.26491   0.50142   Biso      1.000     V          1.823055  
         V2        1.0000    0.06409   0.73509   0.00142   Biso      1.000     V          1.823058  
         V3        1.0000    0.93591   0.23509   0.49858   Biso      1.000     V          1.823053  
         V4        1.0000    0.56409   0.76491   0.99858   Biso      1.000     V          1.823056 