
##########################################################################
#               Crystallographic Information Format file
#               Produced by PyCifRW module
#
#  This is a CIF file.  CIF has been adopted by the International
#  Union of Crystallography as the standard for data archiving and
#  transmission.
#
#  For information on this file format, follow the CIF links at
#  http://www.iucr.org
##########################################################################

data_image0

_cell_length_a                          6.7999
_cell_length_b                          12.7002
_cell_length_c                          16.6802
_cell_angle_alpha                       90
_cell_angle_beta                        90
_cell_angle_gamma                       90
_symmetry_space_group_name_H-M          'P 1'
_symmetry_int_tables_number             1
loop_
  _symmetry_equiv_pos_as_xyz
         'x, y, z' 
loop_
  _atom_site_label
  _atom_site_occupancy
  _atom_site_fract_x
  _atom_site_fract_y
  _atom_site_fract_z
  _atom_site_thermal_displace_type
  _atom_site_B_iso_or_equiv
  _atom_site_type_symbol
  _atom_site_charge
         C1        1.0000    0.77370   0.90280   0.91146   Biso      1.000     C          0.6221399999999999  
         C2        1.0000    0.07710   0.50010   0.19070   Biso      1.000     C          -0.10475799999999999          
         C3        1.0000    0.22630   0.40280   0.58854   Biso      1.000     C          0.622139  
         C4        1.0000    0.06640   0.43830   0.25860   Biso      1.000     C          -0.108743           
         C5        1.0000    0.24060   0.48070   0.65530   Biso      1.000     C          -0.022708000000000002         
         C6        1.0000    0.77460   0.83720   0.13098   Biso      1.000     C          0.622577  
         C7        1.0000    0.76400   0.89500   0.20874   Biso      1.000     C          -0.020291999999999998         
         C8        1.0000    0.42290   0.49990   0.69070   Biso      1.000     C          -0.10475799999999999          
         C9        1.0000    0.58430   0.91060   0.24570   Biso      1.000     C          -0.106491           
         C10       1.0000    0.57170   0.97270   0.31400   Biso      1.000     C          -0.10715899999999999          
         C11       1.0000    0.43360   0.56170   0.75860   Biso      1.000     C          -0.10874400000000001          
         C12       1.0000    0.93360   0.93830   0.24140   Biso      1.000     C          -0.108742           
         C13       1.0000    0.92290   0.00010   0.30930   Biso      1.000     C          -0.10475799999999999          
         C14       1.0000    0.74060   0.01930   0.34470   Biso      1.000     C          -0.022706999999999998         
         C15       1.0000    0.72630   0.09720   0.41146   Biso      1.000     C          0.622139  
         C16       1.0000    0.25940   0.51930   0.15530   Biso      1.000     C          -0.022709           
         C17       1.0000    0.42830   0.47270   0.18600   Biso      1.000     C          -0.10715899999999999          
         C18       1.0000    0.41570   0.41060   0.25430   Biso      1.000     C          -0.10649000000000002          
         C19       1.0000    0.75940   0.98070   0.84470   Biso      1.000     C          -0.022709           
         C20       1.0000    0.57710   0.99990   0.80930   Biso      1.000     C          -0.10475799999999999          
         C21       1.0000    0.27460   0.66280   0.86902   Biso      1.000     C          0.622577  
         C22       1.0000    0.56640   0.06170   0.74140   Biso      1.000     C          -0.108743           
         C23       1.0000    0.26400   0.60500   0.79126   Biso      1.000     C          -0.02029  
         C24       1.0000    0.92830   0.02730   0.81400   Biso      1.000     C          -0.10715899999999999          
         C25       1.0000    0.07170   0.52730   0.68600   Biso      1.000     C          -0.10715899999999999          
         C26       1.0000    0.91570   0.08940   0.74570   Biso      1.000     C          -0.10649000000000002          
         C27       1.0000    0.08430   0.58940   0.75430   Biso      1.000     C          -0.106491           
         C28       1.0000    0.73600   0.10500   0.70874   Biso      1.000     C          -0.02029  
         C29       1.0000    0.72540   0.16280   0.63098   Biso      1.000     C          0.622575  
         C30       1.0000    0.22540   0.33720   0.36902   Biso      1.000     C          0.622575  
         C31       1.0000    0.23600   0.39500   0.29126   Biso      1.000     C          -0.02029  
         C32       1.0000    0.27370   0.59720   0.08854   Biso      1.000     C          0.6221399999999999  
         H1        1.0000    0.97170   0.62070   0.77510   Biso      1.000     H          0.128092  
         H2        1.0000    0.55480   0.57440   0.78260   Biso      1.000     H          0.12771   
         H3        1.0000    0.95100   0.51690   0.66100   Biso      1.000     H          0.127937  
         H4        1.0000    0.53660   0.47130   0.66870   Biso      1.000     H          0.12864   
         H5        1.0000    0.45100   0.98310   0.33900   Biso      1.000     H          0.127937  
         H6        1.0000    0.94520   0.42560   0.28260   Biso      1.000     H          0.12771   
         H7        1.0000    0.47170   0.87930   0.22490   Biso      1.000     H          0.128092  
         H8        1.0000    0.05480   0.92560   0.21740   Biso      1.000     H          0.12771   
         H9        1.0000    0.03660   0.02870   0.33130   Biso      1.000     H          0.12864   
         H10       1.0000    0.54900   0.48310   0.16100   Biso      1.000     H          0.127937  
         H11       1.0000    0.52830   0.37930   0.27510   Biso      1.000     H          0.128091  
         H12       1.0000    0.02830   0.12070   0.72490   Biso      1.000     H          0.128091  
         H13       1.0000    0.04900   0.01690   0.83900   Biso      1.000     H          0.127937  
         H14       1.0000    0.44520   0.07440   0.71740   Biso      1.000     H          0.12771   
         H15       1.0000    0.46340   0.97130   0.83130   Biso      1.000     H          0.12864   
         H16       1.0000    0.96340   0.52870   0.16870   Biso      1.000     H          0.12864   
         O1        1.0000    0.38590   0.36356   0.56416   Biso      1.000     O          -0.5754560000000001           
         O2        1.0000    0.44200   0.62037   0.06310   Biso      1.000     O          -0.59215  
         O3        1.0000    0.11480   0.69260   0.89927   Biso      1.000     O          -0.573382           
         O4        1.0000    0.61480   0.80740   0.10073   Biso      1.000     O          -0.573382           
         O5        1.0000    0.44230   0.67480   0.89951   Biso      1.000     O          -0.59732  
         O6        1.0000    0.71750   0.31331   0.48736   Biso      1.000     O          -0.760235           
         O7        1.0000    0.11410   0.63644   0.06416   Biso      1.000     O          -0.575455           
         O8        1.0000    0.88590   0.13644   0.43584   Biso      1.000     O          -0.5754560000000001           
         O9        1.0000    0.78250   0.68669   0.98736   Biso      1.000     O          -0.760235           
         O10       1.0000    0.55800   0.12037   0.43690   Biso      1.000     O          -0.59215  
         O11       1.0000    0.94230   0.82520   0.10049   Biso      1.000     O          -0.59732  
         O12       1.0000    0.21750   0.18669   0.51264   Biso      1.000     O          -0.760235           
         O13       1.0000    0.38520   0.30740   0.39927   Biso      1.000     O          -0.573382           
         O14       1.0000    0.61410   0.86356   0.93584   Biso      1.000     O          -0.575455           
         O15       1.0000    0.88520   0.19260   0.60073   Biso      1.000     O          -0.573382           
         O16       1.0000    0.94200   0.87963   0.93690   Biso      1.000     O          -0.59215  
         O17       1.0000    0.55770   0.17480   0.60049   Biso      1.000     O          -0.59732  
         O18       1.0000    0.28250   0.81331   0.01264   Biso      1.000     O          -0.760235           
         O19       1.0000    0.05800   0.37963   0.56310   Biso      1.000     O          -0.59215  
         O20       1.0000    0.05770   0.32520   0.39951   Biso      1.000     O          -0.59732  
         V1        1.0000    0.43650   0.23408   0.50184   Biso      1.000     V          1.811598  
         V2        1.0000    0.06350   0.76592   0.00184   Biso      1.000     V          1.8115990000000002  
         V3        1.0000    0.93650   0.26592   0.49816   Biso      1.000     V          1.811598  
         V4        1.0000    0.56350   0.73408   0.99816   Biso      1.000     V          1.8115990000000002 