
##########################################################################
#               Crystallographic Information Format file
#               Produced by PyCifRW module
#
#  This is a CIF file.  CIF has been adopted by the International
#  Union of Crystallography as the standard for data archiving and
#  transmission.
#
#  For information on this file format, follow the CIF links at
#  http://www.iucr.org
##########################################################################

data_image0

_cell_length_a                          6.8055
_cell_length_b                          13.4475
_cell_length_c                          16.1809
_cell_angle_alpha                       90
_cell_angle_beta                        90
_cell_angle_gamma                       90
_symmetry_space_group_name_H-M          'P 1'
_symmetry_int_tables_number             1
loop_
  _symmetry_equiv_pos_as_xyz
         'x, y, z' 
loop_
  _atom_site_label
  _atom_site_occupancy
  _atom_site_fract_x
  _atom_site_fract_y
  _atom_site_fract_z
  _atom_site_thermal_displace_type
  _atom_site_B_iso_or_equiv
  _atom_site_type_symbol
  _atom_site_charge
         C1        1.0000    0.22430   0.60960   0.40430   Biso      1.000     C          0.627745  
         C2        1.0000    0.91920   0.98820   0.69790   Biso      1.000     C          -0.101001           
         C3        1.0000    0.77570   0.10960   0.09570   Biso      1.000     C          0.622095  
         C4        1.0000    0.93100   0.05170   0.76190   Biso      1.000     C          -0.10578800000000001          
         C5        1.0000    0.75980   0.03430   0.16210   Biso      1.000     C          -0.018966           
         C6        1.0000    0.22310   0.65570   0.62950   Biso      1.000     C          0.630505  
         C7        1.0000    0.23770   0.59510   0.70470   Biso      1.000     C          -0.020447           
         C8        1.0000    0.58080   0.01180   0.19790   Biso      1.000     C          -0.103415           
         C9        1.0000    0.41550   0.57470   0.74050   Biso      1.000     C          -0.10090199999999999          
         C10       1.0000    0.42860   0.51070   0.80710   Biso      1.000     C          -0.10828499999999999          
         C11       1.0000    0.56900   0.94830   0.26190   Biso      1.000     C          -0.10344500000000001          
         C12       1.0000    0.06900   0.55170   0.73810   Biso      1.000     C          -0.10347  
         C13       1.0000    0.08080   0.48820   0.80210   Biso      1.000     C          -0.10339200000000001          
         C14       1.0000    0.25980   0.46570   0.83790   Biso      1.000     C          -0.018966999999999998         
         C15       1.0000    0.27570   0.39040   0.90430   Biso      1.000     C          0.622095  
         C16       1.0000    0.74020   0.96570   0.66210   Biso      1.000     C          -0.018872           
         C17       1.0000    0.57140   0.01070   0.69290   Biso      1.000     C          -0.105956           
         C18       1.0000    0.58450   0.07470   0.75950   Biso      1.000     C          -0.103591           
         C19       1.0000    0.24020   0.53430   0.33790   Biso      1.000     C          -0.018872999999999997         
         C20       1.0000    0.41920   0.51180   0.30210   Biso      1.000     C          -0.101    
         C21       1.0000    0.72310   0.84430   0.37050   Biso      1.000     C          0.630505  
         C22       1.0000    0.43100   0.44830   0.23810   Biso      1.000     C          -0.10578800000000001          
         C23       1.0000    0.73770   0.90490   0.29530   Biso      1.000     C          -0.02045  
         C24       1.0000    0.07140   0.48930   0.30710   Biso      1.000     C          -0.105956           
         C25       1.0000    0.92860   0.98930   0.19290   Biso      1.000     C          -0.10828900000000001          
         C26       1.0000    0.08450   0.42530   0.24050   Biso      1.000     C          -0.103591           
         C27       1.0000    0.91550   0.92530   0.25950   Biso      1.000     C          -0.100898           
         C28       1.0000    0.26230   0.40490   0.20470   Biso      1.000     C          -0.020665           
         C29       1.0000    0.27690   0.34430   0.12950   Biso      1.000     C          0.624783  
         C30       1.0000    0.77690   0.15570   0.87050   Biso      1.000     C          0.624783  
         C31       1.0000    0.76230   0.09510   0.79530   Biso      1.000     C          -0.020665           
         C32       1.0000    0.72430   0.89040   0.59570   Biso      1.000     C          0.627745  
         H1        1.0000    0.02880   0.89580   0.28020   Biso      1.000     H          0.126382  
         H2        1.0000    0.44680   0.93300   0.28420   Biso      1.000     H          0.125164  
         H3        1.0000    0.04990   0.00220   0.16880   Biso      1.000     H          0.12634700000000001           
         H4        1.0000    0.46690   0.04100   0.17750   Biso      1.000     H          0.125614  
         H5        1.0000    0.54990   0.49780   0.83120   Biso      1.000     H          0.12634700000000001           
         H6        1.0000    0.05320   0.06700   0.78420   Biso      1.000     H          0.12456400000000001           
         H7        1.0000    0.52880   0.60420   0.71980   Biso      1.000     H          0.126383  
         H8        1.0000    0.94680   0.56700   0.71580   Biso      1.000     H          0.125166  
         H9        1.0000    0.96690   0.45900   0.82250   Biso      1.000     H          0.125613  
         H10       1.0000    0.45010   0.99780   0.66880   Biso      1.000     H          0.126868  
         H11       1.0000    0.47120   0.10420   0.78020   Biso      1.000     H          0.125657  
         H12       1.0000    0.97120   0.39580   0.21980   Biso      1.000     H          0.125657  
         H13       1.0000    0.95010   0.50220   0.33120   Biso      1.000     H          0.126868  
         H14       1.0000    0.55320   0.43300   0.21580   Biso      1.000     H          0.12456400000000001           
         H15       1.0000    0.53310   0.54100   0.32250   Biso      1.000     H          0.126301  
         H16       1.0000    0.03310   0.95900   0.67750   Biso      1.000     H          0.126301  
         O1        1.0000    0.61550   0.14730   0.07140   Biso      1.000     O          -0.576595           
         O2        1.0000    0.55640   0.86790   0.56980   Biso      1.000     O          -0.595934           
         O3        1.0000    0.55720   0.82840   0.40090   Biso      1.000     O          -0.5979949999999999           
         O4        1.0000    0.05720   0.67160   0.59910   Biso      1.000     O          -0.5979949999999999           
         O5        1.0000    0.88430   0.81260   0.40040   Biso      1.000     O          -0.58945  
         O6        1.0000    0.71650   0.68980   0.51000   Biso      1.000     O          -0.774361           
         O7        1.0000    0.88450   0.85270   0.57140   Biso      1.000     O          -0.583359           
         O8        1.0000    0.11550   0.35270   0.92860   Biso      1.000     O          -0.576595           
         O9        1.0000    0.78350   0.31020   0.01000   Biso      1.000     O          -0.763306           
         O10       1.0000    0.44360   0.36790   0.93020   Biso      1.000     O          -0.590326           
         O11       1.0000    0.38430   0.68740   0.59960   Biso      1.000     O          -0.58945  
         O12       1.0000    0.21650   0.81020   0.49000   Biso      1.000     O          -0.774362           
         O13       1.0000    0.94280   0.17160   0.90090   Biso      1.000     O          -0.592871           
         O14       1.0000    0.38450   0.64730   0.42860   Biso      1.000     O          -0.583359           
         O15       1.0000    0.44280   0.32840   0.09910   Biso      1.000     O          -0.592871           
         O16       1.0000    0.05640   0.63210   0.43020   Biso      1.000     O          -0.595934           
         O17       1.0000    0.11570   0.31260   0.09960   Biso      1.000     O          -0.5826520000000001           
         O18       1.0000    0.28350   0.18980   0.99000   Biso      1.000     O          -0.763306           
         O19       1.0000    0.94360   0.13210   0.06980   Biso      1.000     O          -0.590326           
         O20       1.0000    0.61570   0.18740   0.90040   Biso      1.000     O          -0.5826520000000001           
         V1        1.0000    0.43546   0.76454   0.49852   Biso      1.000     V          1.825533  
         V2        1.0000    0.06454   0.23546   0.99852   Biso      1.000     V          1.820627  
         V3        1.0000    0.93546   0.73546   0.50148   Biso      1.000     V          1.825533  
         V4        1.0000    0.56454   0.26454   0.00148   Biso      1.000     V          1.820627 