
##########################################################################
#               Crystallographic Information Format file
#               Produced by PyCifRW module
#
#  This is a CIF file.  CIF has been adopted by the International
#  Union of Crystallography as the standard for data archiving and
#  transmission.
#
#  For information on this file format, follow the CIF links at
#  http://www.iucr.org
##########################################################################

data_image0

_cell_length_a                          18.628
_cell_length_b                          6.8742
_cell_length_c                          19.101
_cell_angle_alpha                       90
_cell_angle_beta                        118.77
_cell_angle_gamma                       90
_symmetry_space_group_name_H-M          'P 1'
_symmetry_int_tables_number             1
loop_
  _symmetry_equiv_pos_as_xyz
         'x, y, z' 
loop_
  _atom_site_label
  _atom_site_occupancy
  _atom_site_fract_x
  _atom_site_fract_y
  _atom_site_fract_z
  _atom_site_thermal_displace_type
  _atom_site_B_iso_or_equiv
  _atom_site_type_symbol
  _atom_site_charge
         C1        1.0000    0.13299   0.53730   0.96297   Biso      1.000     C          0.110127  
         C2        1.0000    0.76621   0.91490   0.09769   Biso      1.000     C          -0.16652899999999998          
         C3        1.0000    0.77660   0.97500   0.03410   Biso      1.000     C          0.033382  
         C4        1.0000    0.64004   0.47460   0.46210   Biso      1.000     C          0.590989  
         C5        1.0000    0.70789   0.03720   0.96526   Biso      1.000     C          -0.153615           
         C6        1.0000    0.94277   0.61320   0.60847   Biso      1.000     C          0.5788760000000001  
         C7        1.0000    0.86701   0.46270   0.03703   Biso      1.000     C          0.110127  
         C8        1.0000    0.79211   0.46280   0.03474   Biso      1.000     C          -0.153606           
         C9        1.0000    0.81125   0.41800   0.40960   Biso      1.000     C          0.12245   
         C10       1.0000    0.72340   0.52500   0.96590   Biso      1.000     C          0.033385000000000005          
         C11       1.0000    0.73379   0.58510   0.90231   Biso      1.000     C          -0.166525           
         C12       1.0000    0.73379   0.41490   0.40231   Biso      1.000     C          -0.166523           
         C13       1.0000    0.85996   0.02540   0.53790   Biso      1.000     C          0.59099   
         C14       1.0000    0.81125   0.58200   0.90960   Biso      1.000     C          0.12246300000000002           
         C15       1.0000    0.94277   0.38680   0.10847   Biso      1.000     C          0.5788989999999999  
         C16       1.0000    0.64004   0.52540   0.96210   Biso      1.000     C          0.590989  
         C17       1.0000    0.63299   0.03730   0.96297   Biso      1.000     C          0.110133  
         C18       1.0000    0.79211   0.53720   0.53474   Biso      1.000     C          -0.153613           
         C19       1.0000    0.86701   0.53730   0.53703   Biso      1.000     C          0.110133  
         C20       1.0000    0.35996   0.47460   0.03790   Biso      1.000     C          0.590989  
         C21       1.0000    0.36701   0.96270   0.03703   Biso      1.000     C          0.110127  
         C22       1.0000    0.29211   0.96280   0.03474   Biso      1.000     C          -0.153609           
         C23       1.0000    0.14004   0.02540   0.96210   Biso      1.000     C          0.590993  
         C24       1.0000    0.22340   0.02500   0.96590   Biso      1.000     C          0.033381  
         C25       1.0000    0.23379   0.08510   0.90231   Biso      1.000     C          -0.166528           
         C26       1.0000    0.72340   0.47500   0.46590   Biso      1.000     C          0.033384  
         C27       1.0000    0.44277   0.88680   0.10847   Biso      1.000     C          0.578852  
         C28       1.0000    0.55723   0.88680   0.39153   Biso      1.000     C          0.578869  
         C29       1.0000    0.68875   0.08200   0.59040   Biso      1.000     C          0.122445  
         C30       1.0000    0.20789   0.53720   0.96526   Biso      1.000     C          -0.153606           
         C31       1.0000    0.27660   0.47500   0.03410   Biso      1.000     C          0.033385000000000005          
         C32       1.0000    0.85996   0.97460   0.03790   Biso      1.000     C          0.590993  
         C33       1.0000    0.26621   0.41490   0.09769   Biso      1.000     C          -0.166525           
         C34       1.0000    0.13299   0.46270   0.46297   Biso      1.000     C          0.110126  
         C35       1.0000    0.20789   0.46280   0.46526   Biso      1.000     C          -0.153606           
         C36       1.0000    0.14004   0.97460   0.46210   Biso      1.000     C          0.59099   
         C37       1.0000    0.27660   0.52500   0.53410   Biso      1.000     C          0.033382  
         C38       1.0000    0.26621   0.58510   0.59769   Biso      1.000     C          -0.166524           
         C39       1.0000    0.44277   0.11320   0.60847   Biso      1.000     C          0.578868  
         C40       1.0000    0.18875   0.58200   0.59040   Biso      1.000     C          0.12245199999999999           
         C41       1.0000    0.05723   0.61320   0.89153   Biso      1.000     C          0.5788989999999999  
         C42       1.0000    0.31125   0.91800   0.40960   Biso      1.000     C          0.122446  
         C43       1.0000    0.35996   0.52540   0.53790   Biso      1.000     C          0.590989  
         C44       1.0000    0.55723   0.11320   0.89153   Biso      1.000     C          0.578852  
         C45       1.0000    0.23379   0.91490   0.40231   Biso      1.000     C          -0.166525           
         C46       1.0000    0.68875   0.91800   0.09040   Biso      1.000     C          0.122439  
         C47       1.0000    0.22340   0.97500   0.46590   Biso      1.000     C          0.033381  
         C48       1.0000    0.29211   0.03720   0.53474   Biso      1.000     C          -0.153613           
         C49       1.0000    0.63299   0.96270   0.46297   Biso      1.000     C          0.110126  
         C50       1.0000    0.70789   0.96280   0.46526   Biso      1.000     C          -0.153607           
         C51       1.0000    0.36701   0.03730   0.53703   Biso      1.000     C          0.110133  
         C52       1.0000    0.77660   0.02500   0.53410   Biso      1.000     C          0.03338   
         C53       1.0000    0.76621   0.08510   0.59769   Biso      1.000     C          -0.166523           
         C54       1.0000    0.18875   0.41800   0.09040   Biso      1.000     C          0.12246300000000002           
         C55       1.0000    0.05723   0.38680   0.39153   Biso      1.000     C          0.5788770000000001  
         C56       1.0000    0.31125   0.08200   0.90960   Biso      1.000     C          0.122438  
         Co1       1.0000    0.00000   0.50000   0.00000   Biso      1.000     Co          0.694635  
         Co2       1.0000    0.50000   0.00000   0.00000   Biso      1.000     Co          0.6942520000000001  
         Co3       1.0000    0.50000   0.00000   0.50000   Biso      1.000     Co          0.6944    
         Co4       1.0000    0.00000   0.50000   0.50000   Biso      1.000     Co          0.694469  
         H1        1.0000    0.18920   0.12720   0.85520   Biso      1.000     H          0.11097   
         H2        1.0000    0.81080   0.12720   0.64480   Biso      1.000     H          0.11096900000000001           
         H3        1.0000    0.31080   0.37280   0.14480   Biso      1.000     H          0.11096700000000001           
         H4        1.0000    0.71250   0.92170   0.42120   Biso      1.000     H          0.139513  
         H5        1.0000    0.28750   0.07830   0.57880   Biso      1.000     H          0.139513  
         H6        1.0000    0.81080   0.87280   0.14480   Biso      1.000     H          0.11097   
         H7        1.0000    0.68240   0.87660   0.13350   Biso      1.000     H          0.102506  
         H8        1.0000    0.18920   0.87280   0.35520   Biso      1.000     H          0.11096900000000001           
         H9        1.0000    0.18240   0.62340   0.63350   Biso      1.000     H          0.102503  
         H10       1.0000    0.31760   0.87660   0.36650   Biso      1.000     H          0.102503  
         H11       1.0000    0.31080   0.62720   0.64480   Biso      1.000     H          0.11096900000000001           
         H12       1.0000    0.21250   0.42170   0.42120   Biso      1.000     H          0.139512  
         H13       1.0000    0.21250   0.57830   0.92120   Biso      1.000     H          0.139509  
         H14       1.0000    0.31760   0.12340   0.86650   Biso      1.000     H          0.102506  
         H15       1.0000    0.68240   0.12340   0.63350   Biso      1.000     H          0.102503  
         H16       1.0000    0.18240   0.37660   0.13350   Biso      1.000     H          0.1025    
         H17       1.0000    0.81760   0.37660   0.36650   Biso      1.000     H          0.102503  
         H18       1.0000    0.78750   0.42170   0.07880   Biso      1.000     H          0.139509  
         H19       1.0000    0.28750   0.92170   0.07880   Biso      1.000     H          0.139516  
         H20       1.0000    0.68920   0.37280   0.35520   Biso      1.000     H          0.11096900000000001           
         H21       1.0000    0.68920   0.62720   0.85520   Biso      1.000     H          0.11096700000000001           
         H22       1.0000    0.81760   0.62340   0.86650   Biso      1.000     H          0.1025    
         H23       1.0000    0.78750   0.57830   0.57880   Biso      1.000     H          0.139513  
         H24       1.0000    0.71250   0.07830   0.92120   Biso      1.000     H          0.139517  
         N1        1.0000    0.87725   0.52270   0.97544   Biso      1.000     N          -0.20991100000000001          
         N2        1.0000    0.12275   0.52270   0.52456   Biso      1.000     N          -0.20984  
         N3        1.0000    0.37725   0.02270   0.97544   Biso      1.000     N          -0.209749           
         N4        1.0000    0.62275   0.97730   0.02456   Biso      1.000     N          -0.209749           
         N5        1.0000    0.12275   0.47730   0.02456   Biso      1.000     N          -0.20991100000000001          
         N6        1.0000    0.62275   0.02270   0.52456   Biso      1.000     N          -0.209808           
         N7        1.0000    0.37725   0.97730   0.47544   Biso      1.000     N          -0.20980900000000002          
         N8        1.0000    0.87725   0.47730   0.47544   Biso      1.000     N          -0.20984  
         O1        1.0000    0.92018   0.91830   0.10160   Biso      1.000     O          -0.731298           
         O2        1.0000    0.49156   0.11365   0.89640   Biso      1.000     O          -0.514109           
         O3        1.0000    0.56342   0.17280   0.83384   Biso      1.000     O          -0.60352  
         O4        1.0000    0.86287   0.02900   0.97716   Biso      1.000     O          -0.561135           
         O5        1.0000    0.99156   0.38635   0.39640   Biso      1.000     O          -0.514165           
         O6        1.0000    0.42018   0.41830   0.10160   Biso      1.000     O          -0.7312850000000001           
         O7        1.0000    0.06342   0.32720   0.33384   Biso      1.000     O          -0.60351  
         O8        1.0000    0.42018   0.58170   0.60160   Biso      1.000     O          -0.7312850000000001           
         O9        1.0000    0.36287   0.47100   0.47716   Biso      1.000     O          -0.561125           
         O10       1.0000    0.49156   0.88635   0.39640   Biso      1.000     O          -0.5141479999999999           
         O11       1.0000    0.56342   0.82720   0.33384   Biso      1.000     O          -0.603514           
         O12       1.0000    0.92018   0.08170   0.60160   Biso      1.000     O          -0.73129  
         O13       1.0000    0.86287   0.97100   0.47716   Biso      1.000     O          -0.561127           
         O14       1.0000    0.00844   0.38635   0.10360   Biso      1.000     O          -0.5142100000000001           
         O15       1.0000    0.93658   0.32720   0.16616   Biso      1.000     O          -0.603504           
         O16       1.0000    0.36287   0.52900   0.97716   Biso      1.000     O          -0.561124           
         O17       1.0000    0.63713   0.47100   0.02284   Biso      1.000     O          -0.561124           
         O18       1.0000    0.50844   0.88635   0.10360   Biso      1.000     O          -0.514109           
         O19       1.0000    0.57982   0.58170   0.89840   Biso      1.000     O          -0.7312850000000001           
         O20       1.0000    0.07982   0.08170   0.89840   Biso      1.000     O          -0.731298           
         O21       1.0000    0.06342   0.67280   0.83384   Biso      1.000     O          -0.603504           
         O22       1.0000    0.99156   0.61365   0.89640   Biso      1.000     O          -0.5142100000000001           
         O23       1.0000    0.43658   0.82720   0.16616   Biso      1.000     O          -0.603521           
         O24       1.0000    0.07982   0.91830   0.39840   Biso      1.000     O          -0.73129  
         O25       1.0000    0.43658   0.17280   0.66616   Biso      1.000     O          -0.603514           
         O26       1.0000    0.13713   0.02900   0.52284   Biso      1.000     O          -0.561127           
         O27       1.0000    0.57982   0.41830   0.39840   Biso      1.000     O          -0.7312850000000001           
         O28       1.0000    0.93658   0.67280   0.66616   Biso      1.000     O          -0.60351  
         O29       1.0000    0.00844   0.61365   0.60360   Biso      1.000     O          -0.514165           
         O30       1.0000    0.13713   0.97100   0.02284   Biso      1.000     O          -0.561135           
         O31       1.0000    0.50844   0.11365   0.60360   Biso      1.000     O          -0.5141479999999999           
         O32       1.0000    0.63713   0.52900   0.52284   Biso      1.000     O          -0.561125           
         Sr1       1.0000    0.00000   0.01264   0.25000   Biso      1.000     Sr          1.608047  
         Sr2       1.0000    0.50000   0.51264   0.25000   Biso      1.000     Sr          1.608034  
         Sr3       1.0000    0.00000   0.98736   0.75000   Biso      1.000     Sr          1.608047  
         Sr4       1.0000    0.50000   0.48736   0.75000   Biso      1.000     Sr          1.608034 