
##########################################################################
#               Crystallographic Information Format file
#               Produced by PyCifRW module
#
#  This is a CIF file.  CIF has been adopted by the International
#  Union of Crystallography as the standard for data archiving and
#  transmission.
#
#  For information on this file format, follow the CIF links at
#  http://www.iucr.org
##########################################################################

data_image0

_cell_length_a                          12.1761
_cell_length_b                          14.336
_cell_length_c                          12.5552
_cell_angle_alpha                       90
_cell_angle_beta                        113.22
_cell_angle_gamma                       90
_symmetry_space_group_name_H-M          'P 1'
_symmetry_int_tables_number             1
loop_
  _symmetry_equiv_pos_as_xyz
         'x, y, z' 
loop_
  _atom_site_label
  _atom_site_occupancy
  _atom_site_fract_x
  _atom_site_fract_y
  _atom_site_fract_z
  _atom_site_thermal_displace_type
  _atom_site_B_iso_or_equiv
  _atom_site_type_symbol
  _atom_site_charge
         C1        1.0000    0.04880   0.08980   0.41420   Biso      1.000     C          -0.139826           
         C2        1.0000    0.14030   0.61930   0.33480   Biso      1.000     C          -0.025203           
         C3        1.0000    0.94320   0.68240   0.29230   Biso      1.000     C          -0.010029           
         C4        1.0000    0.90630   0.16770   0.85880   Biso      1.000     C          0.598429  
         C5        1.0000    0.33970   0.18780   0.23420   Biso      1.000     C          -0.132744           
         C6        1.0000    0.92700   0.24480   0.78690   Biso      1.000     C          -0.034088           
         C7        1.0000    0.53440   0.25240   0.27330   Biso      1.000     C          -0.128646           
         C8        1.0000    0.03040   0.11190   0.30230   Biso      1.000     C          -0.054667           
         C9        1.0000    0.89390   0.99060   0.23350   Biso      1.000     C          0.023311  
         C10       1.0000    0.09030   0.03510   0.65560   Biso      1.000     C          -0.142826           
         C11       1.0000    0.03440   0.24760   0.77330   Biso      1.000     C          -0.129042           
         C12       1.0000    0.83970   0.31220   0.73420   Biso      1.000     C          -0.131648           
         C13       1.0000    0.39390   0.50940   0.73350   Biso      1.000     C          0.024779  
         C14       1.0000    0.09370   0.83230   0.14120   Biso      1.000     C          0.598427  
         C15       1.0000    0.90970   0.96490   0.34440   Biso      1.000     C          -0.142833           
         C16       1.0000    0.53040   0.38810   0.80230   Biso      1.000     C          -0.053977           
         C17       1.0000    0.07300   0.75520   0.21310   Biso      1.000     C          -0.03409  
         C18       1.0000    0.05680   0.31760   0.70770   Biso      1.000     C          -0.01003  
         C19       1.0000    0.85970   0.38070   0.66520   Biso      1.000     C          -0.025196           
         C20       1.0000    0.42700   0.25520   0.28690   Biso      1.000     C          -0.034378           
         C21       1.0000    0.40630   0.33230   0.35880   Biso      1.000     C          0.601258  
         C22       1.0000    0.99000   0.01340   0.43910   Biso      1.000     C          0.077003  
         C23       1.0000    0.96960   0.88810   0.69770   Biso      1.000     C          -0.054675           
         C24       1.0000    0.96950   0.38370   0.65380   Biso      1.000     C          -0.105934           
         C25       1.0000    0.17180   0.31350   0.68770   Biso      1.000     C          0.566155  
         C26       1.0000    0.76400   0.44960   0.59900   Biso      1.000     C          0.602771  
         C27       1.0000    0.10610   0.00940   0.76650   Biso      1.000     C          0.023301  
         C28       1.0000    0.95120   0.91020   0.58580   Biso      1.000     C          -0.139817           
         C29       1.0000    0.54880   0.41020   0.91420   Biso      1.000     C          -0.139121           
         C30       1.0000    0.96560   0.75240   0.22670   Biso      1.000     C          -0.129042           
         C31       1.0000    0.40970   0.53510   0.84440   Biso      1.000     C          -0.141908           
         C32       1.0000    0.01000   0.98660   0.56090   Biso      1.000     C          0.076986  
         C33       1.0000    0.26400   0.05040   0.09900   Biso      1.000     C          0.599544  
         C34       1.0000    0.23600   0.55040   0.40100   Biso      1.000     C          0.602771  
         C35       1.0000    0.82820   0.68650   0.31230   Biso      1.000     C          0.566154  
         C36       1.0000    0.59370   0.66770   0.64120   Biso      1.000     C          0.601259  
         C37       1.0000    0.67180   0.18650   0.18770   Biso      1.000     C          0.566131  
         C38       1.0000    0.57300   0.74480   0.71310   Biso      1.000     C          -0.034371           
         C39       1.0000    0.03050   0.61630   0.34620   Biso      1.000     C          -0.105934           
         C40       1.0000    0.46960   0.61190   0.19770   Biso      1.000     C          -0.05398  
         C41       1.0000    0.60610   0.49060   0.26650   Biso      1.000     C          0.024776  
         C42       1.0000    0.46950   0.11630   0.15380   Biso      1.000     C          -0.106424           
         C43       1.0000    0.46560   0.74760   0.72670   Biso      1.000     C          -0.128648           
         C44       1.0000    0.66030   0.81220   0.76580   Biso      1.000     C          -0.13274  
         C45       1.0000    0.59030   0.46490   0.15560   Biso      1.000     C          -0.141904           
         C46       1.0000    0.45120   0.58980   0.08580   Biso      1.000     C          -0.139119           
         C47       1.0000    0.55680   0.18240   0.20770   Biso      1.000     C          -0.010315           
         C48       1.0000    0.73600   0.94960   0.90100   Biso      1.000     C          0.599546  
         C49       1.0000    0.32820   0.81350   0.81230   Biso      1.000     C          0.566133  
         C50       1.0000    0.53050   0.88370   0.84620   Biso      1.000     C          -0.106426           
         C51       1.0000    0.49000   0.48660   0.93910   Biso      1.000     C          0.077605  
         C52       1.0000    0.51000   0.51340   0.06090   Biso      1.000     C          0.077605  
         C53       1.0000    0.16030   0.68780   0.26580   Biso      1.000     C          -0.13165  
         C54       1.0000    0.64030   0.88070   0.83480   Biso      1.000     C          -0.024001           
         C55       1.0000    0.44320   0.81760   0.79230   Biso      1.000     C          -0.010313           
         C56       1.0000    0.35970   0.11930   0.16520   Biso      1.000     C          -0.024004           
         H1        1.0000    0.26840   0.18860   0.24500   Biso      1.000     H          0.110802  
         H2        1.0000    0.57170   0.33860   0.78750   Biso      1.000     H          0.130451  
         H3        1.0000    0.60090   0.37430   0.97470   Biso      1.000     H          0.137904  
         H4        1.0000    0.36670   0.58490   0.85590   Biso      1.000     H          0.147497  
         H5        1.0000    0.59210   0.29770   0.30830   Biso      1.000     H          0.119735  
         H6        1.0000    0.48390   0.06950   0.10960   Biso      1.000     H          0.136728  
         H7        1.0000    0.34100   0.54290   0.67080   Biso      1.000     H          0.145351  
         H8        1.0000    0.48270   0.35620   0.61380   Biso      1.000     H          0.389062  
         H9        1.0000    0.98270   0.14380   0.11380   Biso      1.000     H          0.387029  
         H10       1.0000    0.01730   0.85620   0.88620   Biso      1.000     H          0.38703   
         H11       1.0000    0.01610   0.56950   0.39040   Biso      1.000     H          0.136748  
         H12       1.0000    0.13330   0.08490   0.64410   Biso      1.000     H          0.147139  
         H13       1.0000    0.42830   0.66140   0.21250   Biso      1.000     H          0.130452  
         H14       1.0000    0.65900   0.45710   0.32920   Biso      1.000     H          0.145352  
         H15       1.0000    0.40790   0.70230   0.69170   Biso      1.000     H          0.119735  
         H16       1.0000    0.73160   0.81140   0.75500   Biso      1.000     H          0.110804  
         H17       1.0000    0.39910   0.62570   0.02530   Biso      1.000     H          0.137904  
         H18       1.0000    0.63330   0.41510   0.14410   Biso      1.000     H          0.147497  
         H19       1.0000    0.51610   0.93050   0.89040   Biso      1.000     H          0.13673   
         H20       1.0000    0.51730   0.64380   0.38620   Biso      1.000     H          0.38906   
         H21       1.0000    0.92830   0.83860   0.71250   Biso      1.000     H          0.130086  
         H22       1.0000    0.89910   0.87430   0.52530   Biso      1.000     H          0.137421  
         H23       1.0000    0.90790   0.79770   0.19170   Biso      1.000     H          0.119838  
         H24       1.0000    0.15900   0.04290   0.82920   Biso      1.000     H          0.144887  
         H25       1.0000    0.07170   0.16140   0.28750   Biso      1.000     H          0.130085  
         H26       1.0000    0.84100   0.95710   0.17080   Biso      1.000     H          0.144889  
         H27       1.0000    0.09210   0.20230   0.80830   Biso      1.000     H          0.119838  
         H28       1.0000    0.76840   0.31140   0.74500   Biso      1.000     H          0.110613  
         H29       1.0000    0.10090   0.12570   0.47470   Biso      1.000     H          0.137417  
         H30       1.0000    0.86670   0.91510   0.35590   Biso      1.000     H          0.147143  
         H31       1.0000    0.98390   0.43050   0.60960   Biso      1.000     H          0.136748  
         H32       1.0000    0.23160   0.68860   0.25500   Biso      1.000     H          0.110613  
         N1        1.0000    0.95310   0.06240   0.21430   Biso      1.000     N          0.295971  
         N2        1.0000    0.04690   0.93760   0.78570   Biso      1.000     N          0.295969  
         N3        1.0000    0.45310   0.43760   0.71430   Biso      1.000     N          0.295445  
         N4        1.0000    0.54690   0.56240   0.28570   Biso      1.000     N          0.295441  
         Ni1       1.0000    0.73837   0.63743   0.49530   Biso      1.000     Ni          0.637198  
         Ni2       1.0000    0.26163   0.36257   0.50470   Biso      1.000     Ni          0.637199  
         Ni3       1.0000    0.00000   0.00000   0.00000   Biso      1.000     Ni          0.752932  
         Ni4       1.0000    0.76163   0.13743   0.00470   Biso      1.000     Ni          0.638652  
         Ni5       1.0000    0.50000   0.50000   0.50000   Biso      1.000     Ni          0.812768  
         Ni6       1.0000    0.23837   0.86257   0.99530   Biso      1.000     Ni          0.638634  
         O1        1.0000    0.69160   0.66857   0.62900   Biso      1.000     O          -0.569224           
         O2        1.0000    0.75750   0.75165   0.26590   Biso      1.000     O          -0.604912           
         O3        1.0000    0.56640   0.58756   0.39760   Biso      1.000     O          -0.366091           
         O4        1.0000    0.31350   0.87697   0.87460   Biso      1.000     O          -0.56835  
         O5        1.0000    0.71020   0.00384   0.96610   Biso      1.000     O          -0.506613           
         O6        1.0000    0.51060   0.60957   0.60010   Biso      1.000     O          -0.551414           
         O7        1.0000    0.83376   0.94638   0.88920   Biso      1.000     O          -0.574046           
         O8        1.0000    0.25750   0.74835   0.76590   Biso      1.000     O          -0.605102           
         O9        1.0000    0.80840   0.16857   0.87100   Biso      1.000     O          -0.567745           
         O10       1.0000    0.93360   0.08756   0.10240   Biso      1.000     O          -0.365228           
         O11       1.0000    0.18650   0.37697   0.62540   Biso      1.000     O          -0.568782           
         O12       1.0000    0.78980   0.50384   0.53390   Biso      1.000     O          -0.50645  
         O13       1.0000    0.19160   0.83143   0.12900   Biso      1.000     O          -0.567741           
         O14       1.0000    0.24250   0.24835   0.73410   Biso      1.000     O          -0.604912           
         O15       1.0000    0.30840   0.33143   0.37100   Biso      1.000     O          -0.569221           
         O16       1.0000    0.43360   0.41244   0.60240   Biso      1.000     O          -0.366108           
         O17       1.0000    0.33376   0.55362   0.38920   Biso      1.000     O          -0.588584           
         O18       1.0000    0.68650   0.12303   0.12540   Biso      1.000     O          -0.568355           
         O19       1.0000    0.28980   0.99616   0.03390   Biso      1.000     O          -0.506602           
         O20       1.0000    0.01060   0.89043   0.10010   Biso      1.000     O          -0.531064           
         O21       1.0000    0.48940   0.39043   0.39990   Biso      1.000     O          -0.55141  
         O22       1.0000    0.16624   0.05362   0.11080   Biso      1.000     O          -0.574044           
         O23       1.0000    0.74250   0.25165   0.23410   Biso      1.000     O          -0.605105           
         O24       1.0000    0.21020   0.49616   0.46610   Biso      1.000     O          -0.506432           
         O25       1.0000    0.81350   0.62303   0.37460   Biso      1.000     O          -0.568779           
         O26       1.0000    0.06640   0.91244   0.89760   Biso      1.000     O          -0.365218           
         O27       1.0000    0.98940   0.10957   0.89990   Biso      1.000     O          -0.531065           
         O28       1.0000    0.66624   0.44638   0.61080   Biso      1.000     O          -0.588593 