
##########################################################################
#               Crystallographic Information Format file
#               Produced by PyCifRW module
#
#  This is a CIF file.  CIF has been adopted by the International
#  Union of Crystallography as the standard for data archiving and
#  transmission.
#
#  For information on this file format, follow the CIF links at
#  http://www.iucr.org
##########################################################################

data_image0

_cell_length_a                          9.9428
_cell_length_b                          10.4394
_cell_length_c                          14.5779
_cell_angle_alpha                       107.05
_cell_angle_beta                        109.127
_cell_angle_gamma                       90.079
_symmetry_space_group_name_H-M          'P 1'
_symmetry_int_tables_number             1
loop_
  _symmetry_equiv_pos_as_xyz
         'x, y, z' 
loop_
  _atom_site_label
  _atom_site_occupancy
  _atom_site_fract_x
  _atom_site_fract_y
  _atom_site_fract_z
  _atom_site_thermal_displace_type
  _atom_site_B_iso_or_equiv
  _atom_site_type_symbol
  _atom_site_charge
         C1        1.0000    0.15160   0.56540   0.27960   Biso      1.000     C          0.5476840000000001  
         C2        1.0000    0.46250   0.10320   0.89330   Biso      1.000     C          0.289571  
         C3        1.0000    0.12860   0.02840   0.24270   Biso      1.000     C          0.6064430000000001  
         C4        1.0000    0.29830   0.22560   0.10050   Biso      1.000     C          0.592167  
         C5        1.0000    0.63620   0.86610   0.05690   Biso      1.000     C          -0.20829499999999998          
         C6        1.0000    0.14630   0.79670   0.26540   Biso      1.000     C          -0.122902           
         C7        1.0000    0.34810   0.79630   0.94580   Biso      1.000     C          0.01917   
         C8        1.0000    0.19080   0.71620   0.32750   Biso      1.000     C          0.028752  
         C9        1.0000    0.26480   0.76780   0.42950   Biso      1.000     C          -0.237377           
         C10       1.0000    0.39080   0.86120   0.05040   Biso      1.000     C          -0.23800900000000003          
         C11       1.0000    0.17420   0.93730   0.30970   Biso      1.000     C          -0.008186           
         C12       1.0000    0.51110   0.98270   0.74070   Biso      1.000     C          -0.037110000000000004         
         C13       1.0000    0.44570   0.76720   0.89650   Biso      1.000     C          -0.11506300000000001          
         C14       1.0000    0.59140   0.80320   0.95270   Biso      1.000     C          0.002902  
         C15       1.0000    0.24620   0.99330   0.41420   Biso      1.000     C          -0.225289           
         C16       1.0000    0.19150   0.76160   0.88590   Biso      1.000     C          0.587774  
         C17       1.0000    0.84840   0.43460   0.72040   Biso      1.000     C          0.547659  
         C18       1.0000    0.29490   0.90940   0.47480   Biso      1.000     C          0.28224499999999997           
         C19       1.0000    0.43300   0.88990   0.63660   Biso      1.000     C          -0.031916           
         C20       1.0000    0.87140   0.97160   0.75730   Biso      1.000     C          0.606444  
         C21       1.0000    0.56700   0.11010   0.36340   Biso      1.000     C          -0.031915           
         C22       1.0000    0.70510   0.09060   0.52520   Biso      1.000     C          0.282235  
         C23       1.0000    0.75380   0.00670   0.58580   Biso      1.000     C          -0.225287           
         C24       1.0000    0.48890   0.01730   0.25930   Biso      1.000     C          -0.037107           
         C25       1.0000    0.82580   0.06270   0.69030   Biso      1.000     C          -0.008184           
         C26       1.0000    0.80850   0.23840   0.11410   Biso      1.000     C          0.587774  
         C27       1.0000    0.73520   0.23220   0.57050   Biso      1.000     C          -0.23738299999999998          
         C28       1.0000    0.40860   0.19680   0.04730   Biso      1.000     C          0.0028940000000000003         
         C29       1.0000    0.55430   0.23280   0.10350   Biso      1.000     C          -0.11503800000000002          
         C30       1.0000    0.80920   0.28380   0.67250   Biso      1.000     C          0.028756999999999998          
         C31       1.0000    0.60920   0.13880   0.94960   Biso      1.000     C          -0.238    
         C32       1.0000    0.85370   0.20330   0.73460   Biso      1.000     C          -0.1229   
         C33       1.0000    0.65190   0.20370   0.05420   Biso      1.000     C          0.019172  
         C34       1.0000    0.70170   0.77440   0.89950   Biso      1.000     C          0.592167  
         C35       1.0000    0.36380   0.13390   0.94310   Biso      1.000     C          -0.20828000000000002          
         C36       1.0000    0.53750   0.89680   0.10670   Biso      1.000     C          0.289566  
         Cd1       1.0000    0.10428   0.29784   0.20177   Biso      1.000     Cd          1.003957  
         Cd2       1.0000    0.89572   0.70216   0.79823   Biso      1.000     Cd          1.003954  
         Cd3       1.0000    0.00000   0.00000   0.00000   Biso      1.000     Cd          1.146474  
         H1        1.0000    0.50100   0.16330   0.39080   Biso      1.000     H          0.114336  
         H2        1.0000    0.73810   0.91360   0.55630   Biso      1.000     H          0.152022  
         H3        1.0000    0.43220   0.94530   0.26380   Biso      1.000     H          0.102079  
         H4        1.0000    0.42450   0.06600   0.21920   Biso      1.000     H          0.10077799999999999           
         H5        1.0000    0.70490   0.28920   0.53100   Biso      1.000     H          0.144955  
         H6        1.0000    0.58480   0.27590   0.17360   Biso      1.000     H          0.133152  
         H7        1.0000    0.90120   0.24140   0.80440   Biso      1.000     H          0.142508  
         H8        1.0000    0.67680   0.11910   0.91740   Biso      1.000     H          0.137463  
         H9        1.0000    0.26650   0.11200   0.90590   Biso      1.000     H          0.149198  
         H10       1.0000    0.49900   0.83670   0.60920   Biso      1.000     H          0.114336  
         H11       1.0000    0.73350   0.88800   0.09410   Biso      1.000     H          0.1492    
         H12       1.0000    0.09880   0.75860   0.19560   Biso      1.000     H          0.142503  
         H13       1.0000    0.36110   0.82900   0.63870   Biso      1.000     H          0.113601  
         H14       1.0000    0.29510   0.71080   0.46900   Biso      1.000     H          0.144949  
         H15       1.0000    0.63890   0.17100   0.36130   Biso      1.000     H          0.113602  
         H16       1.0000    0.41520   0.72410   0.82640   Biso      1.000     H          0.133155  
         H17       1.0000    0.57550   0.93400   0.78080   Biso      1.000     H          0.100779  
         H18       1.0000    0.56780   0.05470   0.73620   Biso      1.000     H          0.10207999999999999           
         H19       1.0000    0.26190   0.08640   0.44370   Biso      1.000     H          0.15201800000000001           
         H20       1.0000    0.32320   0.88090   0.08260   Biso      1.000     H          0.137465  
         O1        1.0000    0.89740   0.18510   0.06970   Biso      1.000     O          -0.6057859999999999           
         O2        1.0000    0.40930   0.04020   0.79130   Biso      1.000     O          -0.172098           
         O3        1.0000    0.10260   0.81490   0.93030   Biso      1.000     O          -0.605776           
         O4        1.0000    0.85310   0.31580   0.20130   Biso      1.000     O          -0.49971000000000004          
         O5        1.0000    0.59070   0.95980   0.20870   Biso      1.000     O          -0.17210599999999998          
         O6        1.0000    0.14690   0.68420   0.79870   Biso      1.000     O          -0.499699           
         O7        1.0000    0.18400   0.49250   0.33780   Biso      1.000     O          -0.46398100000000003          
         O8        1.0000    0.33480   0.29820   0.18980   Biso      1.000     O          -0.536255           
         O9        1.0000    0.66520   0.70180   0.81020   Biso      1.000     O          -0.5362520000000001           
         O10       1.0000    0.09910   0.51600   0.18500   Biso      1.000     O          -0.46102600000000005          
         O11       1.0000    0.90090   0.48400   0.81500   Biso      1.000     O          -0.461016           
         O12       1.0000    0.85920   0.84910   0.71410   Biso      1.000     O          -0.524029           
         O13       1.0000    0.17210   0.17780   0.05160   Biso      1.000     O          -0.601587           
         O14       1.0000    0.08600   0.97100   0.14990   Biso      1.000     O          -0.578044           
         O15       1.0000    0.36720   0.97070   0.57470   Biso      1.000     O          -0.157366           
         O16       1.0000    0.91400   0.02900   0.85010   Biso      1.000     O          -0.5780489999999999           
         O17       1.0000    0.14080   0.15090   0.28590   Biso      1.000     O          -0.5240229999999999           
         O18       1.0000    0.82790   0.82220   0.94840   Biso      1.000     O          -0.601585           
         O19       1.0000    0.81600   0.50750   0.66220   Biso      1.000     O          -0.46395699999999995          
         O20       1.0000    0.63280   0.02930   0.42530   Biso      1.000     O          -0.157356 