
##########################################################################
#               Crystallographic Information Format file
#               Produced by PyCifRW module
#
#  This is a CIF file.  CIF has been adopted by the International
#  Union of Crystallography as the standard for data archiving and
#  transmission.
#
#  For information on this file format, follow the CIF links at
#  http://www.iucr.org
##########################################################################

data_image0

_cell_length_a                          11.472
_cell_length_b                          19.94
_cell_length_c                          12.0025
_cell_angle_alpha                       90
_cell_angle_beta                        101.475
_cell_angle_gamma                       90
_symmetry_space_group_name_H-M          'P 1'
_symmetry_int_tables_number             1
loop_
  _symmetry_equiv_pos_as_xyz
         'x, y, z' 
loop_
  _atom_site_label
  _atom_site_occupancy
  _atom_site_fract_x
  _atom_site_fract_y
  _atom_site_fract_z
  _atom_site_thermal_displace_type
  _atom_site_B_iso_or_equiv
  _atom_site_type_symbol
  _atom_site_charge
         C1        1.0000    0.85580   0.93387   0.82270   Biso      1.000     C          -0.185832           
         C2        1.0000    0.53780   0.57356   0.88760   Biso      1.000     C          -0.24804400000000001          
         C3        1.0000    0.52960   0.83465   0.25595   Biso      1.000     C          -0.188693           
         C4        1.0000    0.94020   0.58119   0.41840   Biso      1.000     C          0.10185599999999999           
         C5        1.0000    0.53195   0.95223   0.18380   Biso      1.000     C          0.58983   
         C6        1.0000    0.52800   0.78910   0.34390   Biso      1.000     C          0.000149  
         C7        1.0000    0.06860   0.91679   0.91800   Biso      1.000     C          0.10343699999999999           
         C8        1.0000    0.53310   0.81305   0.45370   Biso      1.000     C          -0.259838           
         C9        1.0000    0.47200   0.21090   0.65610   Biso      1.000     C          0.000149  
         C10       1.0000    0.05980   0.41881   0.58160   Biso      1.000     C          0.10185599999999999           
         C11       1.0000    0.47040   0.16535   0.74405   Biso      1.000     C          -0.188693           
         C12       1.0000    0.53450   0.59697   0.77852   Biso      1.000     C          -0.030417000000000003         
         C13       1.0000    0.46690   0.18695   0.54630   Biso      1.000     C          -0.259838           
         C14       1.0000    0.53820   0.61891   0.97520   Biso      1.000     C          0.350906  
         C15       1.0000    0.14420   0.43387   0.67730   Biso      1.000     C          -0.185831           
         C16       1.0000    0.46805   0.04777   0.81620   Biso      1.000     C          0.58983   
         C17       1.0000    0.77670   0.90914   0.01360   Biso      1.000     C          0.10205299999999999           
         C18       1.0000    0.85580   0.56613   0.32270   Biso      1.000     C          -0.185831           
         C19       1.0000    0.89640   0.59314   0.51650   Biso      1.000     C          -0.19733599999999998          
         C20       1.0000    0.15310   0.59725   0.51550   Biso      1.000     C          -0.189163           
         C21       1.0000    0.22330   0.40914   0.48640   Biso      1.000     C          0.10205299999999999           
         C22       1.0000    0.73720   0.56328   0.32760   Biso      1.000     C          0.10437   
         C23       1.0000    0.11330   0.92989   0.82000   Biso      1.000     C          -0.196483           
         C24       1.0000    0.11330   0.57011   0.32000   Biso      1.000     C          -0.196484           
         C25       1.0000    0.27180   0.59655   0.51260   Biso      1.000     C          0.10883   
         C26       1.0000    0.73720   0.93672   0.82760   Biso      1.000     C          0.10437   
         C27       1.0000    0.23370   0.56969   0.32550   Biso      1.000     C          0.097574  
         C28       1.0000    0.23370   0.93031   0.82550   Biso      1.000     C          0.097574  
         C29       1.0000    0.53780   0.92644   0.38760   Biso      1.000     C          -0.248045           
         C30       1.0000    0.06860   0.58321   0.41800   Biso      1.000     C          0.10343800000000002           
         C31       1.0000    0.53450   0.90303   0.27852   Biso      1.000     C          -0.030417000000000003         
         C32       1.0000    0.53820   0.88109   0.47520   Biso      1.000     C          0.35091   
         C33       1.0000    0.52090   0.71475   0.32180   Biso      1.000     C          0.597821  
         C34       1.0000    0.15310   0.90275   0.01550   Biso      1.000     C          -0.189162           
         C35       1.0000    0.27180   0.90345   0.01260   Biso      1.000     C          0.10883   
         C36       1.0000    0.22330   0.09086   0.98640   Biso      1.000     C          0.10205299999999999           
         C37       1.0000    0.52090   0.78525   0.82180   Biso      1.000     C          0.597821  
         C38       1.0000    0.84690   0.09725   0.98450   Biso      1.000     C          -0.189163           
         C39       1.0000    0.76630   0.43031   0.67450   Biso      1.000     C          0.097567  
         C40       1.0000    0.46690   0.31305   0.04630   Biso      1.000     C          -0.259839           
         C41       1.0000    0.53195   0.54777   0.68380   Biso      1.000     C          0.58983   
         C42       1.0000    0.47040   0.33465   0.24405   Biso      1.000     C          -0.188693           
         C43       1.0000    0.05980   0.08119   0.08160   Biso      1.000     C          0.10185599999999999           
         C44       1.0000    0.46805   0.45223   0.31620   Biso      1.000     C          0.58983   
         C45       1.0000    0.47200   0.28910   0.15610   Biso      1.000     C          0.000151  
         C46       1.0000    0.72820   0.40345   0.48740   Biso      1.000     C          0.108823  
         C47       1.0000    0.94020   0.91881   0.91840   Biso      1.000     C          0.101857  
         C48       1.0000    0.88670   0.42989   0.68000   Biso      1.000     C          -0.19647699999999998          
         C49       1.0000    0.52960   0.66535   0.75595   Biso      1.000     C          -0.188693           
         C50       1.0000    0.26280   0.43672   0.67240   Biso      1.000     C          0.10437   
         C51       1.0000    0.89640   0.90686   0.01650   Biso      1.000     C          -0.19733599999999998          
         C52       1.0000    0.84690   0.40275   0.48450   Biso      1.000     C          -0.189157           
         C53       1.0000    0.53310   0.68695   0.95370   Biso      1.000     C          -0.259835           
         C54       1.0000    0.14420   0.06613   0.17730   Biso      1.000     C          -0.185831           
         C55       1.0000    0.10360   0.40686   0.48350   Biso      1.000     C          -0.19733599999999998          
         C56       1.0000    0.77670   0.59086   0.51360   Biso      1.000     C          0.10205399999999999           
         C57       1.0000    0.10360   0.09314   0.98350   Biso      1.000     C          -0.19733599999999998          
         C58       1.0000    0.26280   0.06328   0.17240   Biso      1.000     C          0.10437   
         C59       1.0000    0.47910   0.28525   0.67820   Biso      1.000     C          0.597821  
         C60       1.0000    0.88670   0.07011   0.18000   Biso      1.000     C          -0.196483           
         C61       1.0000    0.46180   0.11891   0.52480   Biso      1.000     C          0.350909  
         C62       1.0000    0.72820   0.09655   0.98740   Biso      1.000     C          0.10883   
         C63       1.0000    0.52800   0.71090   0.84390   Biso      1.000     C          0.00015   
         C64       1.0000    0.76630   0.06969   0.17450   Biso      1.000     C          0.097574  
         C65       1.0000    0.46550   0.09697   0.72148   Biso      1.000     C          -0.030418999999999998         
         C66       1.0000    0.46220   0.42644   0.11240   Biso      1.000     C          -0.248045           
         C67       1.0000    0.93140   0.08321   0.08200   Biso      1.000     C          0.10343800000000002           
         C68       1.0000    0.46550   0.40303   0.22148   Biso      1.000     C          -0.030417000000000003         
         C69       1.0000    0.46180   0.38109   0.02480   Biso      1.000     C          0.35091   
         C70       1.0000    0.47910   0.21475   0.17820   Biso      1.000     C          0.597821  
         C71       1.0000    0.46220   0.07356   0.61240   Biso      1.000     C          -0.248042           
         C72       1.0000    0.93140   0.41679   0.58200   Biso      1.000     C          0.10343699999999999           
         H1        1.0000    0.26080   0.94020   0.75930   Biso      1.000     H          0.10268800000000002           
         H2        1.0000    0.94870   0.89730   0.08430   Biso      1.000     H          0.127473  
         H3        1.0000    0.53980   0.52770   0.90210   Biso      1.000     H          0.143022  
         H4        1.0000    0.75030   0.60040   0.58030   Biso      1.000     H          0.100676  
         H5        1.0000    0.06150   0.93830   0.75140   Biso      1.000     H          0.130429  
         H6        1.0000    0.87120   0.39280   0.41700   Biso      1.000     H          0.12773199999999998           
         H7        1.0000    0.31690   0.44810   0.73820   Biso      1.000     H          0.10231900000000001           
         H8        1.0000    0.93850   0.43830   0.74860   Biso      1.000     H          0.130428  
         H9        1.0000    0.67430   0.39360   0.42070   Biso      1.000     H          0.098102  
         H10       1.0000    0.73920   0.44020   0.74070   Biso      1.000     H          0.10268800000000002           
         H11       1.0000    0.46020   0.02770   0.59790   Biso      1.000     H          0.143022  
         H12       1.0000    0.32570   0.89360   0.07930   Biso      1.000     H          0.098102  
         H13       1.0000    0.05130   0.39730   0.41570   Biso      1.000     H          0.127473  
         H14       1.0000    0.46690   0.21700   0.48700   Biso      1.000     H          0.143236  
         H15       1.0000    0.47250   0.18070   0.81760   Biso      1.000     H          0.125699  
         H16       1.0000    0.87930   0.94220   0.75430   Biso      1.000     H          0.128847  
         H17       1.0000    0.75030   0.89960   0.08030   Biso      1.000     H          0.100676  
         H18       1.0000    0.12880   0.89280   0.08300   Biso      1.000     H          0.12773299999999999           
         H19       1.0000    0.68310   0.94810   0.76180   Biso      1.000     H          0.10231900000000001           
         H20       1.0000    0.12070   0.44220   0.74570   Biso      1.000     H          0.128847  
         H21       1.0000    0.47280   0.12260   0.37680   Biso      1.000     H          0.405346  
         H22       1.0000    0.24970   0.39960   0.41970   Biso      1.000     H          0.100676  
         H23       1.0000    0.52750   0.68070   0.68240   Biso      1.000     H          0.125699  
         H24       1.0000    0.52720   0.87740   0.62320   Biso      1.000     H          0.405346  
         H25       1.0000    0.24970   0.10040   0.91970   Biso      1.000     H          0.100676  
         H26       1.0000    0.87120   0.10720   0.91700   Biso      1.000     H          0.12773299999999999           
         H27       1.0000    0.31690   0.05190   0.23820   Biso      1.000     H          0.10231900000000001           
         H28       1.0000    0.93850   0.06170   0.24860   Biso      1.000     H          0.130429  
         H29       1.0000    0.67430   0.10640   0.92070   Biso      1.000     H          0.098102  
         H30       1.0000    0.73920   0.05980   0.24070   Biso      1.000     H          0.10268800000000002           
         H31       1.0000    0.52750   0.81930   0.18240   Biso      1.000     H          0.125699  
         H32       1.0000    0.53310   0.78300   0.51300   Biso      1.000     H          0.143236  
         H33       1.0000    0.87930   0.55780   0.25430   Biso      1.000     H          0.128847  
         H34       1.0000    0.94870   0.60270   0.58430   Biso      1.000     H          0.127473  
         H35       1.0000    0.53980   0.97230   0.40210   Biso      1.000     H          0.143023  
         H36       1.0000    0.26080   0.55980   0.25930   Biso      1.000     H          0.10268800000000002           
         H37       1.0000    0.06150   0.56170   0.25140   Biso      1.000     H          0.130429  
         H38       1.0000    0.68310   0.55190   0.26180   Biso      1.000     H          0.10231900000000001           
         H39       1.0000    0.12880   0.60720   0.58300   Biso      1.000     H          0.12773299999999999           
         H40       1.0000    0.46020   0.47230   0.09790   Biso      1.000     H          0.143023  
         H41       1.0000    0.05130   0.10270   0.91570   Biso      1.000     H          0.127473  
         H42       1.0000    0.52720   0.62260   0.12320   Biso      1.000     H          0.405346  
         H43       1.0000    0.12070   0.05780   0.24570   Biso      1.000     H          0.128847  
         H44       1.0000    0.46690   0.28300   0.98700   Biso      1.000     H          0.143236  
         H45       1.0000    0.47250   0.31930   0.31760   Biso      1.000     H          0.125699  
         H46       1.0000    0.47280   0.37740   0.87680   Biso      1.000     H          0.405346  
         H47       1.0000    0.32570   0.60640   0.57930   Biso      1.000     H          0.098102  
         H48       1.0000    0.53310   0.71700   0.01300   Biso      1.000     H          0.143236  
         N1        1.0000    0.31487   0.58248   0.41948   Biso      1.000     N          -0.202657           
         N2        1.0000    0.30447   0.07586   0.07875   Biso      1.000     N          -0.204131           
         N3        1.0000    0.68513   0.08248   0.08052   Biso      1.000     N          -0.202657           
         N4        1.0000    0.30447   0.42414   0.57875   Biso      1.000     N          -0.204131           
         N5        1.0000    0.31487   0.91752   0.91948   Biso      1.000     N          -0.202657           
         N6        1.0000    0.68513   0.41752   0.58052   Biso      1.000     N          -0.202656           
         N7        1.0000    0.69553   0.57586   0.42125   Biso      1.000     N          -0.204131           
         N8        1.0000    0.69553   0.92414   0.92125   Biso      1.000     N          -0.204131           
         O1        1.0000    0.52137   0.01335   0.20570   Biso      1.000     O          -0.542663           
         O2        1.0000    0.46950   0.19355   0.27137   Biso      1.000     O          -0.581885           
         O3        1.0000    0.47863   0.51335   0.29430   Biso      1.000     O          -0.542663           
         O4        1.0000    0.52137   0.48665   0.70570   Biso      1.000     O          -0.542663           
         O5        1.0000    0.53050   0.80645   0.72863   Biso      1.000     O          -0.581885           
         O6        1.0000    0.50501   0.82063   0.90411   Biso      1.000     O          -0.577669           
         O7        1.0000    0.54154   0.56986   0.58850   Biso      1.000     O          -0.5814600000000001           
         O8        1.0000    0.54120   0.59331   0.08147   Biso      1.000     O          -0.530325           
         O9        1.0000    0.45880   0.09331   0.41853   Biso      1.000     O          -0.530325           
         O10       1.0000    0.45846   0.06986   0.91150   Biso      1.000     O          -0.5814600000000001           
         O11       1.0000    0.49499   0.32063   0.59589   Biso      1.000     O          -0.577669           
         O12       1.0000    0.46950   0.30645   0.77137   Biso      1.000     O          -0.581885           
         O13       1.0000    0.45880   0.40669   0.91853   Biso      1.000     O          -0.530325           
         O14       1.0000    0.54120   0.90669   0.58147   Biso      1.000     O          -0.530325           
         O15       1.0000    0.47863   0.98665   0.79430   Biso      1.000     O          -0.542663           
         O16       1.0000    0.54154   0.93014   0.08850   Biso      1.000     O          -0.5814600000000001           
         O17       1.0000    0.50501   0.67937   0.40411   Biso      1.000     O          -0.577669           
         O18       1.0000    0.53050   0.69355   0.22863   Biso      1.000     O          -0.581886           
         O19       1.0000    0.49499   0.17937   0.09589   Biso      1.000     O          -0.577669           
         O20       1.0000    0.45846   0.43014   0.41150   Biso      1.000     O          -0.5814600000000001           
         Zn1       1.0000    0.50487   0.91839   0.91851   Biso      1.000     Zn          0.824197  
         Zn2       1.0000    0.50487   0.58161   0.41851   Biso      1.000     Zn          0.824197  
         Zn3       1.0000    0.49513   0.41839   0.58149   Biso      1.000     Zn          0.824197  
         Zn4       1.0000    0.49513   0.08161   0.08149   Biso      1.000     Zn          0.824197 