
##########################################################################
#               Crystallographic Information Format file
#               Produced by PyCifRW module
#
#  This is a CIF file.  CIF has been adopted by the International
#  Union of Crystallography as the standard for data archiving and
#  transmission.
#
#  For information on this file format, follow the CIF links at
#  http://www.iucr.org
##########################################################################

data_image0

_cell_length_a                          13.6861
_cell_length_b                          13.6861
_cell_length_c                          16.383
_cell_angle_alpha                       67.0707
_cell_angle_beta                        67.0707
_cell_angle_gamma                       75.6497
_symmetry_space_group_name_H-M          'P 1'
_symmetry_int_tables_number             1
loop_
  _symmetry_equiv_pos_as_xyz
         'x, y, z' 
loop_
  _atom_site_label
  _atom_site_occupancy
  _atom_site_fract_x
  _atom_site_fract_y
  _atom_site_fract_z
  _atom_site_thermal_displace_type
  _atom_site_B_iso_or_equiv
  _atom_site_type_symbol
  _atom_site_charge
         C1        1.0000    0.42751   0.06373   0.85930   Biso      1.000     C          0.615653  
         C2        1.0000    0.16875   0.33339   0.14690   Biso      1.000     C          0.002116  
         C3        1.0000    0.07880   0.35820   0.11980   Biso      1.000     C          -0.125952           
         C4        1.0000    0.98533   0.40135   0.17270   Biso      1.000     C          0.088536  
         C5        1.0000    0.97774   0.42380   0.25060   Biso      1.000     C          -0.13508900000000001          
         C6        1.0000    0.95061   0.30825   0.62260   Biso      1.000     C          0.616401  
         C7        1.0000    0.01033   0.11485   0.69080   Biso      1.000     C          -0.154473           
         C8        1.0000    0.92711   0.19677   0.68960   Biso      1.000     C          0.001029  
         C9        1.0000    0.57249   0.93627   0.14070   Biso      1.000     C          0.61565   
         C10       1.0000    0.71910   0.73072   0.40790   Biso      1.000     C          0.552651  
         C11       1.0000    0.16325   0.35505   0.22490   Biso      1.000     C          -0.097776           
         C12       1.0000    0.59870   0.93158   0.22350   Biso      1.000     C          -0.008565000000000001         
         C13       1.0000    0.66661   0.83125   0.35310   Biso      1.000     C          0.0021149999999999997         
         C14       1.0000    0.64180   0.92120   0.38020   Biso      1.000     C          -0.125952           
         C15       1.0000    0.59865   0.01467   0.32730   Biso      1.000     C          0.088534  
         C16       1.0000    0.57620   0.02226   0.24940   Biso      1.000     C          -0.13508499999999998          
         C17       1.0000    0.69175   0.04939   0.87740   Biso      1.000     C          0.616426  
         C18       1.0000    0.88515   0.98967   0.80920   Biso      1.000     C          -0.15446700000000002          
         C19       1.0000    0.80323   0.07289   0.81040   Biso      1.000     C          0.001025  
         C20       1.0000    0.93627   0.57249   0.64070   Biso      1.000     C          0.6156520000000001  
         C21       1.0000    0.73072   0.71910   0.90790   Biso      1.000     C          0.55265   
         C22       1.0000    0.64495   0.83675   0.27510   Biso      1.000     C          -0.097778           
         C23       1.0000    0.06842   0.40130   0.27650   Biso      1.000     C          -0.008565999999999999         
         C24       1.0000    0.26928   0.28090   0.09210   Biso      1.000     C          0.5526479999999999  
         C25       1.0000    0.06373   0.42751   0.35930   Biso      1.000     C          0.615653  
         C26       1.0000    0.17560   0.82440   0.25000   Biso      1.000     C          -0.10559600000000001          
         C27       1.0000    0.01330   0.98670   0.25000   Biso      1.000     C          0.076132  
         C28       1.0000    0.82440   0.17560   0.75000   Biso      1.000     C          -0.10559400000000001          
         C29       1.0000    0.98670   0.01330   0.75000   Biso      1.000     C          0.076137  
         C30       1.0000    0.19677   0.92711   0.18960   Biso      1.000     C          0.0010220000000000001         
         C31       1.0000    0.11485   0.01033   0.19080   Biso      1.000     C          -0.15446500000000002          
         C32       1.0000    0.30825   0.95061   0.12260   Biso      1.000     C          0.616441  
         C33       1.0000    0.42380   0.97774   0.75060   Biso      1.000     C          -0.13508599999999998          
         C34       1.0000    0.40135   0.98533   0.67270   Biso      1.000     C          0.088532  
         C35       1.0000    0.35820   0.07880   0.61980   Biso      1.000     C          -0.125947           
         C36       1.0000    0.33339   0.16875   0.64690   Biso      1.000     C          0.002117  
         C37       1.0000    0.35505   0.16325   0.72490   Biso      1.000     C          -0.097775           
         C38       1.0000    0.40130   0.06842   0.77650   Biso      1.000     C          -0.008568000000000001         
         C39       1.0000    0.28090   0.26928   0.59210   Biso      1.000     C          0.552642  
         C40       1.0000    0.07289   0.80323   0.31040   Biso      1.000     C          0.001034  
         C41       1.0000    0.98967   0.88515   0.30920   Biso      1.000     C          -0.15446600000000002          
         C42       1.0000    0.04939   0.69175   0.37740   Biso      1.000     C          0.616394  
         C43       1.0000    0.02226   0.57620   0.74940   Biso      1.000     C          -0.135088           
         C44       1.0000    0.01467   0.59865   0.82730   Biso      1.000     C          0.088533  
         C45       1.0000    0.92120   0.64180   0.88020   Biso      1.000     C          -0.125949           
         C46       1.0000    0.83125   0.66661   0.85310   Biso      1.000     C          0.002118  
         C47       1.0000    0.93158   0.59870   0.72350   Biso      1.000     C          -0.008565000000000001         
         C48       1.0000    0.83675   0.64495   0.77510   Biso      1.000     C          -0.097778           
         Eu1       1.0000    0.83237   0.54586   0.50184   Biso      1.000     Eu          1.3890799999999999  
         Eu2       1.0000    0.45414   0.16763   0.99816   Biso      1.000     Eu          1.3890850000000001  
         Eu3       1.0000    0.16763   0.45414   0.49816   Biso      1.000     Eu          1.3890850000000001  
         Eu4       1.0000    0.54586   0.83237   0.00184   Biso      1.000     Eu          1.3891    
         H1        1.0000    0.76900   0.23100   0.75000   Biso      1.000     H          0.12801400000000002           
         H2        1.0000    0.22350   0.33850   0.24300   Biso      1.000     H          0.136125  
         H3        1.0000    0.08170   0.34590   0.06690   Biso      1.000     H          0.141193  
         H4        1.0000    0.91350   0.45330   0.28470   Biso      1.000     H          0.140119  
         H5        1.0000    0.08000   0.12800   0.65280   Biso      1.000     H          0.159152  
         H6        1.0000    0.66150   0.77650   0.25700   Biso      1.000     H          0.13611900000000002           
         H7        1.0000    0.65410   0.91830   0.43310   Biso      1.000     H          0.141193  
         H8        1.0000    0.54670   0.08650   0.21530   Biso      1.000     H          0.14011700000000002           
         H9        1.0000    0.77650   0.66150   0.75700   Biso      1.000     H          0.136122  
         H10       1.0000    0.91830   0.65410   0.93310   Biso      1.000     H          0.141192  
         H11       1.0000    0.08650   0.54670   0.71530   Biso      1.000     H          0.140119  
         H12       1.0000    0.23100   0.76900   0.25000   Biso      1.000     H          0.12801400000000002           
         H13       1.0000    0.92000   0.87200   0.34720   Biso      1.000     H          0.159153  
         H14       1.0000    0.33850   0.22350   0.74300   Biso      1.000     H          0.13611700000000002           
         H15       1.0000    0.34590   0.08170   0.56690   Biso      1.000     H          0.141191  
         H16       1.0000    0.45330   0.91350   0.78470   Biso      1.000     H          0.140118  
         H17       1.0000    0.12800   0.08000   0.15280   Biso      1.000     H          0.159151  
         H18       1.0000    0.87200   0.92000   0.84720   Biso      1.000     H          0.159151  
         N1        1.0000    0.07470   0.92530   0.75000   Biso      1.000     N          0.527435  
         N2        1.0000    0.92530   0.07470   0.25000   Biso      1.000     N          0.527436  
         N3        1.0000    0.42320   0.88936   0.64550   Biso      1.000     N          0.5261279999999999  
         N4        1.0000    0.88936   0.42320   0.14550   Biso      1.000     N          0.526127  
         N5        1.0000    0.57680   0.11064   0.35450   Biso      1.000     N          0.52613   
         N6        1.0000    0.11064   0.57680   0.85450   Biso      1.000     N          0.526129  
         O1        1.0000    0.95283   0.67571   0.41401   Biso      1.000     O          -0.534246           
         O2        1.0000    0.02424   0.53138   0.59772   Biso      1.000     O          -0.578745           
         O3        1.0000    0.85208   0.59270   0.62092   Biso      1.000     O          -0.515922           
         O4        1.0000    0.12732   0.62488   0.39108   Biso      1.000     O          -0.57153  
         O5        1.0000    0.09897   0.57767   0.93184   Biso      1.000     O          -0.319768           
         O6        1.0000    0.72802   0.72686   0.98276   Biso      1.000     O          -0.46506400000000003          
         O7        1.0000    0.19702   0.55824   0.79850   Biso      1.000     O          -0.317423           
         O8        1.0000    0.94827   0.16615   0.20925   Biso      1.000     O          -0.33158200000000004          
         O9        1.0000    0.32429   0.04717   0.08599   Biso      1.000     O          -0.534251           
         O10       1.0000    0.27314   0.27198   0.51724   Biso      1.000     O          -0.465054           
         O11       1.0000    0.46862   0.97576   0.90228   Biso      1.000     O          -0.578739           
         O12       1.0000    0.40730   0.14792   0.87908   Biso      1.000     O          -0.5159239999999999           
         O13       1.0000    0.37512   0.87268   0.10892   Biso      1.000     O          -0.571569           
         O14       1.0000    0.42233   0.90103   0.56816   Biso      1.000     O          -0.319766           
         O15       1.0000    0.65266   0.75384   0.87746   Biso      1.000     O          -0.525057           
         O16       1.0000    0.24616   0.34734   0.62254   Biso      1.000     O          -0.525045           
         O17       1.0000    0.16615   0.94827   0.70925   Biso      1.000     O          -0.331583           
         O18       1.0000    0.87268   0.37512   0.60892   Biso      1.000     O          -0.571539           
         O19       1.0000    0.72686   0.72802   0.48276   Biso      1.000     O          -0.46504700000000004          
         O20       1.0000    0.44176   0.80298   0.70150   Biso      1.000     O          -0.317425           
         O21       1.0000    0.34734   0.24616   0.12254   Biso      1.000     O          -0.525058           
         O22       1.0000    0.04717   0.32429   0.58599   Biso      1.000     O          -0.5342319999999999           
         O23       1.0000    0.97576   0.46862   0.40228   Biso      1.000     O          -0.578746           
         O24       1.0000    0.14792   0.40730   0.37908   Biso      1.000     O          -0.51593  
         O25       1.0000    0.90103   0.42233   0.06816   Biso      1.000     O          -0.319762           
         O26       1.0000    0.27198   0.27314   0.01724   Biso      1.000     O          -0.465052           
         O27       1.0000    0.80298   0.44176   0.20150   Biso      1.000     O          -0.31741199999999997          
         O28       1.0000    0.05173   0.83385   0.79075   Biso      1.000     O          -0.331584           
         O29       1.0000    0.75384   0.65266   0.37746   Biso      1.000     O          -0.525057           
         O30       1.0000    0.67571   0.95283   0.91401   Biso      1.000     O          -0.5342359999999999           
         O31       1.0000    0.53138   0.02424   0.09772   Biso      1.000     O          -0.578745           
         O32       1.0000    0.59270   0.85208   0.12092   Biso      1.000     O          -0.5159189999999999           
         O33       1.0000    0.62488   0.12732   0.89108   Biso      1.000     O          -0.5715640000000001           
         O34       1.0000    0.57767   0.09897   0.43184   Biso      1.000     O          -0.319772           
         O35       1.0000    0.55824   0.19702   0.29850   Biso      1.000     O          -0.317431           
         O36       1.0000    0.83385   0.05173   0.29075   Biso      1.000     O          -0.33158000000000004 