
##########################################################################
#               Crystallographic Information Format file
#               Produced by PyCifRW module
#
#  This is a CIF file.  CIF has been adopted by the International
#  Union of Crystallography as the standard for data archiving and
#  transmission.
#
#  For information on this file format, follow the CIF links at
#  http://www.iucr.org
##########################################################################

data_image0

_cell_length_a                          13.7217
_cell_length_b                          13.7217
_cell_length_c                          16.4199
_cell_angle_alpha                       67.0804
_cell_angle_beta                        67.0804
_cell_angle_gamma                       75.6502
_symmetry_space_group_name_H-M          'P 1'
_symmetry_int_tables_number             1
loop_
  _symmetry_equiv_pos_as_xyz
         'x, y, z' 
loop_
  _atom_site_label
  _atom_site_occupancy
  _atom_site_fract_x
  _atom_site_fract_y
  _atom_site_fract_z
  _atom_site_thermal_displace_type
  _atom_site_B_iso_or_equiv
  _atom_site_type_symbol
  _atom_site_charge
         C1        1.0000    0.06371   0.42707   0.85894   Biso      1.000     C          0.682389  
         C2        1.0000    0.92147   0.64189   0.37996   Biso      1.000     C          -0.12409400000000001          
         C3        1.0000    0.80296   0.07326   0.31009   Biso      1.000     C          0.007123999999999999          
         C4        1.0000    0.69224   0.04978   0.37693   Biso      1.000     C          0.685285  
         C5        1.0000    0.88509   0.99029   0.30897   Biso      1.000     C          -0.15979300000000002          
         C6        1.0000    0.83738   0.64500   0.27502   Biso      1.000     C          -0.09472  
         C7        1.0000    0.02194   0.57652   0.24936   Biso      1.000     C          -0.14685  
         C8        1.0000    0.01419   0.59879   0.32709   Biso      1.000     C          0.091829  
         C9        1.0000    0.57293   0.93629   0.64106   Biso      1.000     C          0.682389  
         C10       1.0000    0.66655   0.83161   0.85285   Biso      1.000     C          0.010494  
         C11       1.0000    0.71870   0.73094   0.90786   Biso      1.000     C          0.589559  
         C12       1.0000    0.64189   0.92147   0.87996   Biso      1.000     C          -0.12409400000000001          
         C13       1.0000    0.07326   0.80296   0.81009   Biso      1.000     C          0.007123999999999999          
         C14       1.0000    0.04978   0.69224   0.87693   Biso      1.000     C          0.68529   
         C15       1.0000    0.99029   0.88509   0.80897   Biso      1.000     C          -0.15979300000000002          
         C16       1.0000    0.64500   0.83738   0.77502   Biso      1.000     C          -0.09471900000000001          
         C17       1.0000    0.57652   0.02194   0.74936   Biso      1.000     C          -0.14685  
         C18       1.0000    0.59879   0.01419   0.82709   Biso      1.000     C          0.091829  
         C19       1.0000    0.01344   0.98656   0.75000   Biso      1.000     C          0.096631  
         C20       1.0000    0.17592   0.82408   0.75000   Biso      1.000     C          -0.11095899999999999          
         C21       1.0000    0.98656   0.01344   0.25000   Biso      1.000     C          0.096631  
         C22       1.0000    0.82408   0.17592   0.25000   Biso      1.000     C          -0.11095899999999999          
         C23       1.0000    0.98581   0.40121   0.67291   Biso      1.000     C          0.091824  
         C24       1.0000    0.97806   0.42348   0.75064   Biso      1.000     C          -0.146849           
         C25       1.0000    0.73094   0.71870   0.40786   Biso      1.000     C          0.589559  
         C26       1.0000    0.16262   0.35500   0.72498   Biso      1.000     C          -0.09472  
         C27       1.0000    0.30776   0.95022   0.62307   Biso      1.000     C          0.685285  
         C28       1.0000    0.19704   0.92674   0.68991   Biso      1.000     C          0.007125  
         C29       1.0000    0.07853   0.35811   0.62004   Biso      1.000     C          -0.12409  
         C30       1.0000    0.26906   0.28130   0.59214   Biso      1.000     C          0.589559  
         C31       1.0000    0.16839   0.33345   0.64715   Biso      1.000     C          0.010494  
         C32       1.0000    0.06856   0.40134   0.77614   Biso      1.000     C          -0.018116           
         C33       1.0000    0.11491   0.00971   0.69103   Biso      1.000     C          -0.15979100000000002          
         C34       1.0000    0.83161   0.66655   0.35285   Biso      1.000     C          0.010495  
         C35       1.0000    0.59866   0.93144   0.72386   Biso      1.000     C          -0.018116           
         C36       1.0000    0.93629   0.57293   0.14106   Biso      1.000     C          0.682389  
         C37       1.0000    0.40121   0.98581   0.17291   Biso      1.000     C          0.091824  
         C38       1.0000    0.42348   0.97806   0.25064   Biso      1.000     C          -0.146849           
         C39       1.0000    0.35500   0.16262   0.22498   Biso      1.000     C          -0.09472  
         C40       1.0000    0.00971   0.11491   0.19103   Biso      1.000     C          -0.15979100000000002          
         C41       1.0000    0.95022   0.30776   0.12307   Biso      1.000     C          0.685289  
         C42       1.0000    0.92674   0.19704   0.18991   Biso      1.000     C          0.007125  
         C43       1.0000    0.35811   0.07853   0.12004   Biso      1.000     C          -0.12409  
         C44       1.0000    0.28130   0.26906   0.09214   Biso      1.000     C          0.589559  
         C45       1.0000    0.33345   0.16839   0.14715   Biso      1.000     C          0.010495  
         C46       1.0000    0.40134   0.06856   0.27614   Biso      1.000     C          -0.018116           
         C47       1.0000    0.42707   0.06371   0.35894   Biso      1.000     C          0.682389  
         C48       1.0000    0.93144   0.59866   0.22386   Biso      1.000     C          -0.018116           
         H1        1.0000    0.87550   0.92770   0.34390   Biso      1.000     H          0.153953  
         H2        1.0000    0.91990   0.65610   0.42980   Biso      1.000     H          0.146123  
         H3        1.0000    0.08280   0.54640   0.21680   Biso      1.000     H          0.137989  
         H4        1.0000    0.33690   0.22150   0.24600   Biso      1.000     H          0.137051  
         H5        1.0000    0.34390   0.08010   0.07020   Biso      1.000     H          0.146122  
         H6        1.0000    0.45360   0.91720   0.28320   Biso      1.000     H          0.137989  
         H7        1.0000    0.66310   0.77850   0.75400   Biso      1.000     H          0.137051  
         H8        1.0000    0.07230   0.12450   0.15610   Biso      1.000     H          0.153953  
         H9        1.0000    0.54640   0.08280   0.71680   Biso      1.000     H          0.137989  
         H10       1.0000    0.77850   0.66310   0.25400   Biso      1.000     H          0.137051  
         H11       1.0000    0.92770   0.87550   0.84390   Biso      1.000     H          0.153953  
         H12       1.0000    0.22150   0.33690   0.74600   Biso      1.000     H          0.137051  
         H13       1.0000    0.91720   0.45360   0.78320   Biso      1.000     H          0.137989  
         H14       1.0000    0.08010   0.34390   0.57020   Biso      1.000     H          0.146122  
         H15       1.0000    0.12450   0.07230   0.65610   Biso      1.000     H          0.153953  
         H16       1.0000    0.77020   0.22980   0.25000   Biso      1.000     H          0.129253  
         H17       1.0000    0.22980   0.77020   0.75000   Biso      1.000     H          0.129253  
         H18       1.0000    0.65610   0.91990   0.92980   Biso      1.000     H          0.146123  
         N1        1.0000    0.07394   0.92606   0.25000   Biso      1.000     N          0.525267  
         N2        1.0000    0.92606   0.07394   0.75000   Biso      1.000     N          0.525267  
         N3        1.0000    0.42351   0.88981   0.14563   Biso      1.000     N          0.532984  
         N4        1.0000    0.11019   0.57649   0.35437   Biso      1.000     N          0.532983  
         N5        1.0000    0.57649   0.11019   0.85437   Biso      1.000     N          0.532983  
         N6        1.0000    0.88981   0.42351   0.64563   Biso      1.000     N          0.532984  
         O1        1.0000    0.53194   0.02372   0.59772   Biso      1.000     O          -0.740584           
         O2        1.0000    0.12747   0.62533   0.89057   Biso      1.000     O          -0.7295020000000001           
         O3        1.0000    0.59330   0.85198   0.62121   Biso      1.000     O          -0.6509659999999999           
         O4        1.0000    0.75322   0.65336   0.87714   Biso      1.000     O          -0.682588           
         O5        1.0000    0.95366   0.67612   0.91328   Biso      1.000     O          -0.6478970000000001           
         O6        1.0000    0.05138   0.83480   0.29120   Biso      1.000     O          -0.331359           
         O7        1.0000    0.72710   0.72848   0.98221   Biso      1.000     O          -0.626127           
         O8        1.0000    0.55793   0.19613   0.79857   Biso      1.000     O          -0.344512           
         O9        1.0000    0.37467   0.87253   0.60943   Biso      1.000     O          -0.7295010000000001           
         O10       1.0000    0.83480   0.05138   0.79120   Biso      1.000     O          -0.331359           
         O11       1.0000    0.32388   0.04634   0.58672   Biso      1.000     O          -0.647895           
         O12       1.0000    0.14802   0.40670   0.87879   Biso      1.000     O          -0.650965           
         O13       1.0000    0.27152   0.27290   0.51779   Biso      1.000     O          -0.6261260000000001           
         O14       1.0000    0.80387   0.44207   0.70143   Biso      1.000     O          -0.344512           
         O15       1.0000    0.34664   0.24678   0.62286   Biso      1.000     O          -0.682588           
         O16       1.0000    0.97628   0.46806   0.90228   Biso      1.000     O          -0.740583           
         O17       1.0000    0.09851   0.57801   0.43126   Biso      1.000     O          -0.34126  
         O18       1.0000    0.57801   0.09851   0.93126   Biso      1.000     O          -0.34126  
         O19       1.0000    0.19613   0.55793   0.29857   Biso      1.000     O          -0.344512           
         O20       1.0000    0.94862   0.16520   0.70880   Biso      1.000     O          -0.331359           
         O21       1.0000    0.02372   0.53194   0.09772   Biso      1.000     O          -0.740583           
         O22       1.0000    0.90149   0.42199   0.56874   Biso      1.000     O          -0.34126  
         O23       1.0000    0.04634   0.32388   0.08672   Biso      1.000     O          -0.6478970000000001           
         O24       1.0000    0.40670   0.14802   0.37879   Biso      1.000     O          -0.6509659999999999           
         O25       1.0000    0.27290   0.27152   0.01779   Biso      1.000     O          -0.626127           
         O26       1.0000    0.87253   0.37467   0.10943   Biso      1.000     O          -0.7295020000000001           
         O27       1.0000    0.65336   0.75322   0.37714   Biso      1.000     O          -0.682588           
         O28       1.0000    0.24678   0.34664   0.12286   Biso      1.000     O          -0.682588           
         O29       1.0000    0.46806   0.97628   0.40228   Biso      1.000     O          -0.740584           
         O30       1.0000    0.42199   0.90149   0.06874   Biso      1.000     O          -0.34126  
         O31       1.0000    0.16520   0.94862   0.20880   Biso      1.000     O          -0.331359           
         O32       1.0000    0.67612   0.95366   0.41328   Biso      1.000     O          -0.647894           
         O33       1.0000    0.85198   0.59330   0.12121   Biso      1.000     O          -0.650965           
         O34       1.0000    0.72848   0.72710   0.48221   Biso      1.000     O          -0.6261260000000001           
         O35       1.0000    0.62533   0.12747   0.39057   Biso      1.000     O          -0.7295010000000001           
         O36       1.0000    0.44207   0.80387   0.20143   Biso      1.000     O          -0.344513           
         Sm1       1.0000    0.45402   0.16744   0.49825   Biso      1.000     Sm          2.143487  
         Sm2       1.0000    0.83256   0.54598   0.00175   Biso      1.000     Sm          2.1434860000000002  
         Sm3       1.0000    0.54598   0.83256   0.50175   Biso      1.000     Sm          2.143487  
         Sm4       1.0000    0.16744   0.45402   0.99825   Biso      1.000     Sm          2.1434860000000002 