
##########################################################################
#               Crystallographic Information Format file
#               Produced by PyCifRW module
#
#  This is a CIF file.  CIF has been adopted by the International
#  Union of Crystallography as the standard for data archiving and
#  transmission.
#
#  For information on this file format, follow the CIF links at
#  http://www.iucr.org
##########################################################################

data_image0

_cell_length_a                          13.7866
_cell_length_b                          13.7866
_cell_length_c                          16.522
_cell_angle_alpha                       67.0874
_cell_angle_beta                        67.0874
_cell_angle_gamma                       75.5061
_symmetry_space_group_name_H-M          'P 1'
_symmetry_int_tables_number             1
loop_
  _symmetry_equiv_pos_as_xyz
         'x, y, z' 
loop_
  _atom_site_label
  _atom_site_occupancy
  _atom_site_fract_x
  _atom_site_fract_y
  _atom_site_fract_z
  _atom_site_thermal_displace_type
  _atom_site_B_iso_or_equiv
  _atom_site_type_symbol
  _atom_site_charge
         C1        1.0000    0.42580   0.06580   0.85810   Biso      1.000     C          0.672299  
         C2        1.0000    0.64000   0.92400   0.37990   Biso      1.000     C          -0.11288  
         C3        1.0000    0.66340   0.83360   0.35420   Biso      1.000     C          0.002735  
         C4        1.0000    0.64290   0.83810   0.27680   Biso      1.000     C          -0.094024           
         C5        1.0000    0.71460   0.73400   0.41010   Biso      1.000     C          0.590476  
         C6        1.0000    0.30600   0.95060   0.12400   Biso      1.000     C          0.679459  
         C7        1.0000    0.19480   0.92860   0.18960   Biso      1.000     C          -0.008406           
         C8        1.0000    0.11290   0.01070   0.19120   Biso      1.000     C          -0.13214700000000001          
         C9        1.0000    0.93420   0.57420   0.64190   Biso      1.000     C          0.672299  
         C10       1.0000    0.02300   0.57620   0.74880   Biso      1.000     C          -0.139299           
         C11       1.0000    0.01720   0.59760   0.82580   Biso      1.000     C          0.085596  
         C12       1.0000    0.92400   0.64000   0.87990   Biso      1.000     C          -0.112864           
         C13       1.0000    0.83360   0.66340   0.85420   Biso      1.000     C          0.002731  
         C14       1.0000    0.83810   0.64290   0.77680   Biso      1.000     C          -0.094026           
         C15       1.0000    0.73400   0.71460   0.91010   Biso      1.000     C          0.590467  
         C16       1.0000    0.95060   0.30600   0.62400   Biso      1.000     C          0.679459  
         C17       1.0000    0.92860   0.19480   0.68960   Biso      1.000     C          -0.008406           
         C18       1.0000    0.01070   0.11290   0.69120   Biso      1.000     C          -0.13214800000000002          
         C19       1.0000    0.98780   0.01220   0.75000   Biso      1.000     C          0.081474  
         C20       1.0000    0.82600   0.17400   0.75000   Biso      1.000     C          -0.105175           
         C21       1.0000    0.01220   0.98780   0.25000   Biso      1.000     C          0.081474  
         C22       1.0000    0.17400   0.82600   0.25000   Biso      1.000     C          -0.105175           
         C23       1.0000    0.88710   0.98930   0.80880   Biso      1.000     C          -0.132145           
         C24       1.0000    0.80520   0.07140   0.81040   Biso      1.000     C          -0.008406           
         C25       1.0000    0.59760   0.01720   0.32580   Biso      1.000     C          0.085599  
         C26       1.0000    0.69400   0.04940   0.87600   Biso      1.000     C          0.679459  
         C27       1.0000    0.35710   0.16190   0.72320   Biso      1.000     C          -0.094023           
         C28       1.0000    0.33660   0.16640   0.64580   Biso      1.000     C          0.002735  
         C29       1.0000    0.36000   0.07600   0.62010   Biso      1.000     C          -0.11288  
         C30       1.0000    0.40240   0.98280   0.67420   Biso      1.000     C          0.0856    
         C31       1.0000    0.42380   0.97700   0.75120   Biso      1.000     C          -0.139297           
         C32       1.0000    0.40230   0.06790   0.77570   Biso      1.000     C          -0.019714           
         C33       1.0000    0.28540   0.26600   0.58990   Biso      1.000     C          0.590476  
         C34       1.0000    0.57620   0.02300   0.24880   Biso      1.000     C          -0.139297           
         C35       1.0000    0.93210   0.59770   0.72430   Biso      1.000     C          -0.019714           
         C36       1.0000    0.57420   0.93420   0.14190   Biso      1.000     C          0.672299  
         C37       1.0000    0.98930   0.88710   0.30880   Biso      1.000     C          -0.132146           
         C38       1.0000    0.07140   0.80520   0.31040   Biso      1.000     C          -0.008406           
         C39       1.0000    0.04940   0.69400   0.37600   Biso      1.000     C          0.679459  
         C40       1.0000    0.26600   0.28540   0.08990   Biso      1.000     C          0.590468  
         C41       1.0000    0.16190   0.35710   0.22320   Biso      1.000     C          -0.094026           
         C42       1.0000    0.16640   0.33660   0.14580   Biso      1.000     C          0.002731  
         C43       1.0000    0.07600   0.36000   0.12010   Biso      1.000     C          -0.11286600000000001          
         C44       1.0000    0.98280   0.40240   0.17420   Biso      1.000     C          0.085596  
         C45       1.0000    0.97700   0.42380   0.25120   Biso      1.000     C          -0.139297           
         C46       1.0000    0.06790   0.40230   0.27570   Biso      1.000     C          -0.019714           
         C47       1.0000    0.06580   0.42580   0.35810   Biso      1.000     C          0.672299  
         C48       1.0000    0.59770   0.93210   0.22430   Biso      1.000     C          -0.019714           
         H1        1.0000    0.12570   0.07990   0.15330   Biso      1.000     H          0.147046  
         H2        1.0000    0.65940   0.77780   0.25950   Biso      1.000     H          0.139052  
         H3        1.0000    0.65240   0.92200   0.43200   Biso      1.000     H          0.14215999999999998           
         H4        1.0000    0.91330   0.45210   0.28600   Biso      1.000     H          0.13301300000000002           
         H5        1.0000    0.22220   0.34060   0.24050   Biso      1.000     H          0.139052  
         H6        1.0000    0.07800   0.34760   0.06800   Biso      1.000     H          0.142157  
         H7        1.0000    0.08670   0.54790   0.71400   Biso      1.000     H          0.13301300000000002           
         H8        1.0000    0.92010   0.87430   0.34670   Biso      1.000     H          0.147046  
         H9        1.0000    0.92200   0.65240   0.93200   Biso      1.000     H          0.142157  
         H10       1.0000    0.54790   0.08670   0.21400   Biso      1.000     H          0.13301300000000002           
         H11       1.0000    0.07990   0.12570   0.65330   Biso      1.000     H          0.147046  
         H12       1.0000    0.45210   0.91330   0.78600   Biso      1.000     H          0.13301300000000002           
         H13       1.0000    0.34760   0.07800   0.56800   Biso      1.000     H          0.14215999999999998           
         H14       1.0000    0.34060   0.22220   0.74050   Biso      1.000     H          0.139052  
         H15       1.0000    0.87430   0.92010   0.84670   Biso      1.000     H          0.147046  
         H16       1.0000    0.22910   0.77090   0.25000   Biso      1.000     H          0.127271  
         H17       1.0000    0.77090   0.22910   0.75000   Biso      1.000     H          0.127271  
         H18       1.0000    0.77780   0.65940   0.75950   Biso      1.000     H          0.139052  
         N1        1.0000    0.92510   0.07490   0.25000   Biso      1.000     N          0.517678  
         N2        1.0000    0.07490   0.92510   0.75000   Biso      1.000     N          0.517678  
         N3        1.0000    0.88760   0.42440   0.14770   Biso      1.000     N          0.5330520000000001  
         N4        1.0000    0.57560   0.11240   0.35230   Biso      1.000     N          0.5330520000000001  
         N5        1.0000    0.11240   0.57560   0.85230   Biso      1.000     N          0.5330520000000001  
         N6        1.0000    0.42440   0.88760   0.64770   Biso      1.000     N          0.5330520000000001  
         O1        1.0000    0.65540   0.74760   0.87980   Biso      1.000     O          -0.683175           
         O2        1.0000    0.84967   0.59467   0.62410   Biso      1.000     O          -0.628416           
         O3        1.0000    0.10260   0.57580   0.92860   Biso      1.000     O          -0.33373800000000003          
         O4        1.0000    0.73170   0.72410   0.98300   Biso      1.000     O          -0.610607           
         O5        1.0000    0.19840   0.55820   0.79500   Biso      1.000     O          -0.354768           
         O6        1.0000    0.94690   0.16690   0.20950   Biso      1.000     O          -0.33407800000000004          
         O7        1.0000    0.02131   0.53291   0.59750   Biso      1.000     O          -0.73322  
         O8        1.0000    0.04629   0.32169   0.58730   Biso      1.000     O          -0.644911           
         O9        1.0000    0.40533   0.15033   0.87590   Biso      1.000     O          -0.628416           
         O10       1.0000    0.16690   0.94690   0.70950   Biso      1.000     O          -0.33407800000000004          
         O11       1.0000    0.44180   0.80160   0.70500   Biso      1.000     O          -0.354768           
         O12       1.0000    0.42420   0.89740   0.57140   Biso      1.000     O          -0.333737           
         O13       1.0000    0.46709   0.97869   0.90250   Biso      1.000     O          -0.73322  
         O14       1.0000    0.67831   0.95371   0.91270   Biso      1.000     O          -0.644911           
         O15       1.0000    0.27590   0.26830   0.51700   Biso      1.000     O          -0.610612           
         O16       1.0000    0.25240   0.34460   0.62020   Biso      1.000     O          -0.683177           
         O17       1.0000    0.37197   0.87297   0.11110   Biso      1.000     O          -0.7099770000000001           
         O18       1.0000    0.87297   0.37197   0.61110   Biso      1.000     O          -0.7099770000000001           
         O19       1.0000    0.32169   0.04629   0.08730   Biso      1.000     O          -0.644911           
         O20       1.0000    0.05310   0.83310   0.79050   Biso      1.000     O          -0.33407800000000004          
         O21       1.0000    0.74760   0.65540   0.37980   Biso      1.000     O          -0.683177           
         O22       1.0000    0.62803   0.12703   0.88890   Biso      1.000     O          -0.7099770000000001           
         O23       1.0000    0.80160   0.44180   0.20500   Biso      1.000     O          -0.354768           
         O24       1.0000    0.89740   0.42420   0.07140   Biso      1.000     O          -0.33373800000000003          
         O25       1.0000    0.97869   0.46709   0.40250   Biso      1.000     O          -0.73322  
         O26       1.0000    0.15033   0.40533   0.37590   Biso      1.000     O          -0.628416           
         O27       1.0000    0.72410   0.73170   0.48300   Biso      1.000     O          -0.610612           
         O28       1.0000    0.26830   0.27590   0.01700   Biso      1.000     O          -0.610607           
         O29       1.0000    0.34460   0.25240   0.12020   Biso      1.000     O          -0.683175           
         O30       1.0000    0.12703   0.62803   0.38890   Biso      1.000     O          -0.7099770000000001           
         O31       1.0000    0.83310   0.05310   0.29050   Biso      1.000     O          -0.33407800000000004          
         O32       1.0000    0.55820   0.19840   0.29500   Biso      1.000     O          -0.354768           
         O33       1.0000    0.57580   0.10260   0.42860   Biso      1.000     O          -0.33373800000000003          
         O34       1.0000    0.53291   0.02131   0.09750   Biso      1.000     O          -0.73322  
         O35       1.0000    0.59467   0.84967   0.12410   Biso      1.000     O          -0.628416           
         O36       1.0000    0.95371   0.67831   0.41270   Biso      1.000     O          -0.644911           
         Pr1       1.0000    0.54600   0.83158   0.00254   Biso      1.000     Pr          2.103848  
         Pr2       1.0000    0.16842   0.45400   0.49746   Biso      1.000     Pr          2.103848  
         Pr3       1.0000    0.45400   0.16842   0.99746   Biso      1.000     Pr          2.103848  
         Pr4       1.0000    0.83158   0.54600   0.50254   Biso      1.000     Pr          2.1038490000000003 