
##########################################################################
#               Crystallographic Information Format file
#               Produced by PyCifRW module
#
#  This is a CIF file.  CIF has been adopted by the International
#  Union of Crystallography as the standard for data archiving and
#  transmission.
#
#  For information on this file format, follow the CIF links at
#  http://www.iucr.org
##########################################################################

data_image0

_cell_length_a                          8.629
_cell_length_b                          9.8397
_cell_length_c                          24.95
_cell_angle_alpha                       90.512
_cell_angle_beta                        90
_cell_angle_gamma                       90
_symmetry_space_group_name_H-M          'P 1'
_symmetry_int_tables_number             1
loop_
  _symmetry_equiv_pos_as_xyz
         'x, y, z' 
loop_
  _atom_site_label
  _atom_site_occupancy
  _atom_site_fract_x
  _atom_site_fract_y
  _atom_site_fract_z
  _atom_site_thermal_displace_type
  _atom_site_B_iso_or_equiv
  _atom_site_type_symbol
  _atom_site_charge
         C1        1.0000    0.54610   0.45080   0.15695   Biso      1.000     C          0.000495  
         C2        1.0000    0.02630   0.75080   0.82014   Biso      1.000     C          0.153049  
         C3        1.0000    0.98160   0.61600   0.83463   Biso      1.000     C          -0.162593           
         C4        1.0000    0.87120   0.59560   0.87334   Biso      1.000     C          -3e-06    
         C5        1.0000    0.80380   0.70440   0.90120   Biso      1.000     C          -0.140554           
         C6        1.0000    0.84450   0.83960   0.88544   Biso      1.000     C          -0.022288           
         C7        1.0000    0.58310   0.59080   0.13804   Biso      1.000     C          0.588669  
         C8        1.0000    0.60570   0.08780   0.10853   Biso      1.000     C          0.610716  
         C9        1.0000    0.67550   0.95300   0.38745   Biso      1.000     C          0.587293  
         C10       1.0000    0.73760   0.45930   0.41082   Biso      1.000     C          0.601608  
         C11       1.0000    0.46580   0.43030   0.20544   Biso      1.000     C          -0.167017           
         C12       1.0000    0.59060   0.33950   0.12533   Biso      1.000     C          -0.135435           
         C13       1.0000    0.95330   0.85850   0.84547   Biso      1.000     C          -0.188662           
         C14       1.0000    0.55630   0.20890   0.14200   Biso      1.000     C          -0.017327           
         C15       1.0000    0.43750   0.29770   0.22215   Biso      1.000     C          0.162959  
         C16       1.0000    0.35690   0.27510   0.27592   Biso      1.000     C          -0.316455           
         C17       1.0000    0.54670   0.35850   0.34547   Biso      1.000     C          -0.188666           
         C18       1.0000    0.47370   0.25080   0.32014   Biso      1.000     C          0.153051  
         C19       1.0000    0.51840   0.11600   0.33463   Biso      1.000     C          -0.162593           
         C20       1.0000    0.62880   0.09560   0.37334   Biso      1.000     C          -4e-06    
         C21       1.0000    0.69620   0.20440   0.40120   Biso      1.000     C          -0.140554           
         C22       1.0000    0.65550   0.33960   0.38544   Biso      1.000     C          -0.022284           
         C23       1.0000    0.10570   0.41220   0.39147   Biso      1.000     C          0.610716  
         C24       1.0000    0.17550   0.54700   0.11255   Biso      1.000     C          0.587294  
         C25       1.0000    0.23760   0.04070   0.08918   Biso      1.000     C          0.601608  
         C26       1.0000    0.48060   0.19170   0.19009   Biso      1.000     C          -0.172743           
         C27       1.0000    0.14310   0.77510   0.77592   Biso      1.000     C          -0.316455           
         C28       1.0000    0.06250   0.79770   0.72215   Biso      1.000     C          0.16296   
         C29       1.0000    0.01940   0.69170   0.69009   Biso      1.000     C          -0.172748           
         C30       1.0000    0.41690   0.40920   0.86196   Biso      1.000     C          0.588669  
         C31       1.0000    0.39430   0.91220   0.89147   Biso      1.000     C          0.610716  
         C32       1.0000    0.32450   0.04700   0.61255   Biso      1.000     C          0.587294  
         C33       1.0000    0.26240   0.54070   0.58918   Biso      1.000     C          0.601609  
         C34       1.0000    0.53420   0.56970   0.79456   Biso      1.000     C          -0.167018           
         C35       1.0000    0.45390   0.54920   0.84305   Biso      1.000     C          0.000495  
         C36       1.0000    0.40940   0.66050   0.87467   Biso      1.000     C          -0.135436           
         C37       1.0000    0.44370   0.79110   0.85800   Biso      1.000     C          -0.017325           
         C38       1.0000    0.51940   0.80830   0.80991   Biso      1.000     C          -0.172756           
         C39       1.0000    0.56250   0.70230   0.77785   Biso      1.000     C          0.162971  
         C40       1.0000    0.64310   0.72490   0.72408   Biso      1.000     C          -0.316456           
         C41       1.0000    0.45330   0.64150   0.65453   Biso      1.000     C          -0.188666           
         C42       1.0000    0.52630   0.74920   0.67986   Biso      1.000     C          0.153051  
         C43       1.0000    0.48160   0.88400   0.66537   Biso      1.000     C          -0.162593           
         C44       1.0000    0.37120   0.90440   0.62666   Biso      1.000     C          -4e-06    
         C45       1.0000    0.30380   0.79560   0.59880   Biso      1.000     C          -0.140554           
         C46       1.0000    0.34450   0.66040   0.61456   Biso      1.000     C          -0.022284           
         C47       1.0000    0.91690   0.09080   0.63804   Biso      1.000     C          0.588669  
         C48       1.0000    0.89430   0.58780   0.60853   Biso      1.000     C          0.610716  
         C49       1.0000    0.82450   0.45300   0.88745   Biso      1.000     C          0.587292  
         C50       1.0000    0.76240   0.95930   0.91082   Biso      1.000     C          0.60161   
         C51       1.0000    0.03420   0.93030   0.70544   Biso      1.000     C          -0.167017           
         C52       1.0000    0.95390   0.95080   0.65695   Biso      1.000     C          0.000496  
         C53       1.0000    0.90940   0.83950   0.62533   Biso      1.000     C          -0.135436           
         C54       1.0000    0.94370   0.70890   0.64200   Biso      1.000     C          -0.017322           
         C55       1.0000    0.96580   0.06970   0.29456   Biso      1.000     C          -0.167017           
         C56       1.0000    0.04610   0.04920   0.34305   Biso      1.000     C          0.000495  
         C57       1.0000    0.08310   0.90920   0.36196   Biso      1.000     C          0.588669  
         C58       1.0000    0.05630   0.29110   0.35800   Biso      1.000     C          -0.017328           
         C59       1.0000    0.09060   0.16050   0.37467   Biso      1.000     C          -0.135434           
         C60       1.0000    0.15550   0.16040   0.11456   Biso      1.000     C          -0.022287           
         C61       1.0000    0.19620   0.29560   0.09880   Biso      1.000     C          -0.140553           
         C62       1.0000    0.01840   0.38400   0.16537   Biso      1.000     C          -0.162593           
         C63       1.0000    0.97370   0.24920   0.17986   Biso      1.000     C          0.153049  
         C64       1.0000    0.12880   0.40440   0.12666   Biso      1.000     C          -5e-06    
         C65       1.0000    0.04670   0.14150   0.15453   Biso      1.000     C          -0.188662           
         C66       1.0000    0.85690   0.22490   0.22408   Biso      1.000     C          -0.316455           
         C67       1.0000    0.93750   0.20230   0.27785   Biso      1.000     C          0.162959  
         C68       1.0000    0.98060   0.30830   0.30991   Biso      1.000     C          -0.172743           
         H1        1.0000    0.47240   0.04170   0.31770   Biso      1.000     H          0.132828  
         H2        1.0000    0.64290   0.35300   0.09320   Biso      1.000     H          0.132044  
         H3        1.0000    0.45800   0.10390   0.20110   Biso      1.000     H          0.131599  
         H4        1.0000    0.29450   0.35410   0.28490   Biso      1.000     H          0.132754  
         H5        1.0000    0.52190   0.44660   0.33530   Biso      1.000     H          0.125869  
         H6        1.0000    0.43220   0.50400   0.22590   Biso      1.000     H          0.139462  
         H7        1.0000    0.76550   0.18960   0.42910   Biso      1.000     H          0.125532  
         H8        1.0000    0.78820   0.30270   0.22700   Biso      1.000     H          0.130697  
         H9        1.0000    0.93220   0.99600   0.27410   Biso      1.000     H          0.139462  
         H10       1.0000    0.14290   0.14700   0.40680   Biso      1.000     H          0.132044  
         H11       1.0000    0.95800   0.39610   0.29890   Biso      1.000     H          0.131599  
         H12       1.0000    0.03030   0.74220   0.48030   Biso      1.000     H          0.437162  
         H13       1.0000    0.79450   0.14590   0.21510   Biso      1.000     H          0.132754  
         H14       1.0000    0.02190   0.05340   0.16470   Biso      1.000     H          0.125869  
         H15       1.0000    0.97240   0.45830   0.18230   Biso      1.000     H          0.132828  
         H16       1.0000    0.26550   0.31040   0.07090   Biso      1.000     H          0.125532  
         H17       1.0000    0.53030   0.75780   0.01970   Biso      1.000     H          0.437162  
         H18       1.0000    0.73450   0.68960   0.92910   Biso      1.000     H          0.125532  
         H19       1.0000    0.28820   0.19730   0.27300   Biso      1.000     H          0.130697  
         H20       1.0000    0.97810   0.94660   0.83530   Biso      1.000     H          0.125869  
         H21       1.0000    0.02760   0.54170   0.81770   Biso      1.000     H          0.132828  
         H22       1.0000    0.96970   0.25780   0.51970   Biso      1.000     H          0.437162  
         H23       1.0000    0.56780   0.49600   0.77410   Biso      1.000     H          0.139462  
         H24       1.0000    0.35710   0.64700   0.90680   Biso      1.000     H          0.132044  
         H25       1.0000    0.71180   0.80270   0.72700   Biso      1.000     H          0.130697  
         H26       1.0000    0.70550   0.64590   0.71510   Biso      1.000     H          0.132754  
         H27       1.0000    0.47810   0.55340   0.66470   Biso      1.000     H          0.125869  
         H28       1.0000    0.54200   0.89610   0.79890   Biso      1.000     H          0.1316    
         H29       1.0000    0.23450   0.81040   0.57090   Biso      1.000     H          0.125532  
         H30       1.0000    0.46970   0.24220   0.98030   Biso      1.000     H          0.437162  
         H31       1.0000    0.06780   0.00400   0.72590   Biso      1.000     H          0.139461  
         H32       1.0000    0.85710   0.85300   0.59320   Biso      1.000     H          0.132044  
         H33       1.0000    0.04200   0.60390   0.70110   Biso      1.000     H          0.131599  
         H34       1.0000    0.21180   0.69730   0.77300   Biso      1.000     H          0.130697  
         H35       1.0000    0.52760   0.95830   0.68230   Biso      1.000     H          0.132828  
         H36       1.0000    0.20550   0.85410   0.78490   Biso      1.000     H          0.132754  
         O1        1.0000    0.88340   0.35490   0.86582   Biso      1.000     O          -0.562608           
         O2        1.0000    0.70920   0.43450   0.91953   Biso      1.000     O          -0.595676           
         O3        1.0000    0.70750   0.93960   0.95801   Biso      1.000     O          -0.625211           
         O4        1.0000    0.76220   0.06670   0.88655   Biso      1.000     O          -0.506874           
         O5        1.0000    0.68560   0.60430   0.10184   Biso      1.000     O          -0.550947           
         O6        1.0000    0.51100   0.69020   0.15516   Biso      1.000     O          -0.563239           
         O7        1.0000    0.87700   0.47840   0.63480   Biso      1.000     O          -0.534158           
         O8        1.0000    0.63100   0.10220   0.06066   Biso      1.000     O          -0.572226           
         O9        1.0000    0.01120   0.68020   0.45748   Biso      1.000     O          -0.903999           
         O10       1.0000    0.86900   0.60220   0.56066   Biso      1.000     O          -0.572227           
         O11       1.0000    0.48880   0.18020   0.95748   Biso      1.000     O          -0.903999           
         O12       1.0000    0.36900   0.89780   0.93934   Biso      1.000     O          -0.572226           
         O13       1.0000    0.37700   0.02160   0.86520   Biso      1.000     O          -0.534157           
         O14       1.0000    0.38340   0.14510   0.63418   Biso      1.000     O          -0.562608           
         O15       1.0000    0.20920   0.06550   0.58047   Biso      1.000     O          -0.595676           
         O16       1.0000    0.20750   0.56040   0.54199   Biso      1.000     O          -0.625212           
         O17       1.0000    0.26220   0.43330   0.61345   Biso      1.000     O          -0.506874           
         O18       1.0000    0.98900   0.19020   0.65516   Biso      1.000     O          -0.56324  
         O19       1.0000    0.62300   0.97840   0.13480   Biso      1.000     O          -0.534157           
         O20       1.0000    0.81440   0.10430   0.60184   Biso      1.000     O          -0.550948           
         O21       1.0000    0.31440   0.39570   0.89816   Biso      1.000     O          -0.550947           
         O22       1.0000    0.61660   0.85490   0.36582   Biso      1.000     O          -0.562608           
         O23       1.0000    0.98880   0.31980   0.54252   Biso      1.000     O          -0.904    
         O24       1.0000    0.79250   0.43960   0.45801   Biso      1.000     O          -0.625212           
         O25       1.0000    0.79080   0.93450   0.41953   Biso      1.000     O          -0.595675           
         O26       1.0000    0.23780   0.93330   0.11345   Biso      1.000     O          -0.506874           
         O27       1.0000    0.29250   0.06040   0.04199   Biso      1.000     O          -0.625211           
         O28       1.0000    0.29080   0.56550   0.08047   Biso      1.000     O          -0.595676           
         O29       1.0000    0.11660   0.64510   0.13418   Biso      1.000     O          -0.562609           
         O30       1.0000    0.48900   0.30980   0.84484   Biso      1.000     O          -0.563239           
         O31       1.0000    0.13100   0.39780   0.43934   Biso      1.000     O          -0.572227           
         O32       1.0000    0.18560   0.89570   0.39816   Biso      1.000     O          -0.550947           
         O33       1.0000    0.01100   0.80980   0.34484   Biso      1.000     O          -0.563239           
         O34       1.0000    0.51120   0.81980   0.04252   Biso      1.000     O          -0.904    
         O35       1.0000    0.73780   0.56670   0.38655   Biso      1.000     O          -0.506875           
         O36       1.0000    0.12300   0.52160   0.36520   Biso      1.000     O          -0.534158           
         Zn1       1.0000    0.00000   0.50000   0.50000   Biso      1.000     Zn          1.05194   
         Zn2       1.0000    0.50000   0.00000   0.00000   Biso      1.000     Zn          1.051938  
         Zn3       1.0000    0.18513   0.26706   0.57862   Biso      1.000     Zn          1.00723   
         Zn4       1.0000    0.29942   0.18731   0.89875   Biso      1.000     Zn          1.012075  
         Zn5       1.0000    0.68513   0.23294   0.92138   Biso      1.000     Zn          1.007231  
         Zn6       1.0000    0.79942   0.31269   0.60125   Biso      1.000     Zn          1.01208   
         Zn7       1.0000    0.81487   0.73294   0.42138   Biso      1.000     Zn          1.007231  
         Zn8       1.0000    0.70058   0.81269   0.10125   Biso      1.000     Zn          1.012077  
         Zn9       1.0000    0.31487   0.76706   0.07862   Biso      1.000     Zn          1.007233  
         Zn10      1.0000    0.20058   0.68731   0.39875   Biso      1.000     Zn          1.012077 