
##########################################################################
#               Crystallographic Information Format file
#               Produced by PyCifRW module
#
#  This is a CIF file.  CIF has been adopted by the International
#  Union of Crystallography as the standard for data archiving and
#  transmission.
#
#  For information on this file format, follow the CIF links at
#  http://www.iucr.org
##########################################################################

data_image0

_cell_length_a                          21.224
_cell_length_b                          21.224
_cell_length_c                          7.71
_cell_angle_alpha                       90
_cell_angle_beta                        90
_cell_angle_gamma                       120
_symmetry_space_group_name_H-M          'P 1'
_symmetry_int_tables_number             1
loop_
  _symmetry_equiv_pos_as_xyz
         'x, y, z' 
loop_
  _atom_site_label
  _atom_site_occupancy
  _atom_site_fract_x
  _atom_site_fract_y
  _atom_site_fract_z
  _atom_site_thermal_displace_type
  _atom_site_B_iso_or_equiv
  _atom_site_type_symbol
  _atom_site_charge
         C1        1.0000    0.08040   0.62280   0.61267   Biso      1.000     C          0.688872  
         C2        1.0000    0.92440   0.39370   0.48517   Biso      1.000     C          -0.088343           
         C3        1.0000    0.46930   0.07560   0.15183   Biso      1.000     C          -0.088206           
         C4        1.0000    0.19480   0.00220   0.73463   Biso      1.000     C          -0.085777           
         C5        1.0000    0.19830   0.93920   0.48023   Biso      1.000     C          -0.08246  
         C6        1.0000    0.06020   0.80050   0.81817   Biso      1.000     C          -0.081289           
         C7        1.0000    0.80660   0.00160   0.22873   Biso      1.000     C          -0.081802           
         C8        1.0000    0.47120   0.14060   0.89933   Biso      1.000     C          -0.086902           
         C9        1.0000    0.85890   0.52790   0.39827   Biso      1.000     C          -0.090486           
         C10       1.0000    0.65710   0.07640   0.14533   Biso      1.000     C          -0.144842           
         C11       1.0000    0.80630   0.97700   0.39673   Biso      1.000     C          -0.039667           
         C12       1.0000    0.49650   0.14010   0.06253   Biso      1.000     C          -0.032587           
         C13       1.0000    0.17040   0.97710   0.56623   Biso      1.000     C          -0.039922           
         C14       1.0000    0.64350   0.13940   0.89933   Biso      1.000     C          -0.038872           
         C15       1.0000    0.04690   0.32340   0.05347   Biso      1.000     C          0.098296  
         C16       1.0000    0.01030   0.75270   0.48627   Biso      1.000     C          -0.146345           
         C17       1.0000    0.87500   0.98960   0.48603   Biso      1.000     C          0.605286  
         C18       1.0000    0.92330   0.34210   0.15327   Biso      1.000     C          -0.142311           
         C19       1.0000    0.65700   0.20940   0.81193   Biso      1.000     C          0.614615  
         C20       1.0000    0.11520   0.99070   0.47683   Biso      1.000     C          0.609491  
         C21       1.0000    0.01040   0.88540   0.81937   Biso      1.000     C          0.605432  
         C22       1.0000    0.04750   0.72430   0.57657   Biso      1.000     C          0.101314  
         C23       1.0000    0.98940   0.40640   0.40877   Biso      1.000     C          -0.149105           
         C24       1.0000    0.37720   0.45760   0.94600   Biso      1.000     C          0.688835  
         C25       1.0000    0.28890   0.41260   0.68400   Biso      1.000     C          0.699819  
         C26       1.0000    0.62000   0.61000   0.57640   Biso      1.000     C          0.097215  
         C27       1.0000    0.39060   0.38010   0.72000   Biso      1.000     C          0.09591   
         C28       1.0000    0.58570   0.70930   0.61000   Biso      1.000     C          0.687225  
         C29       1.0000    0.74030   0.93980   0.48483   Biso      1.000     C          -0.081227           
         C30       1.0000    0.25040   0.32310   0.07480   Biso      1.000     C          -0.149961           
         C31       1.0000    0.66900   0.14110   0.06493   Biso      1.000     C          -0.090475           
         C32       1.0000    0.74240   0.98970   0.15293   Biso      1.000     C          -0.146376           
         C33       1.0000    0.02290   0.19330   0.89957   Biso      1.000     C          -0.039895           
         C34       1.0000    0.79060   0.44760   0.14527   Biso      1.000     C          0.614646  
         C35       1.0000    0.00930   0.12450   0.81017   Biso      1.000     C          0.609619  
         C36       1.0000    0.79050   0.34320   0.48767   Biso      1.000     C          0.609705  
         C37       1.0000    0.85990   0.35640   0.39587   Biso      1.000     C          -0.032576           
         C38       1.0000    0.02300   0.82930   0.73007   Biso      1.000     C          -0.039757           
         C39       1.0000    0.92360   0.58070   0.47867   Biso      1.000     C          -0.14499  
         C40       1.0000    0.54240   0.91960   0.27933   Biso      1.000     C          0.688956  
         C41       1.0000    0.58740   0.87630   0.01733   Biso      1.000     C          0.699915  
         C42       1.0000    0.39000   0.01000   0.90973   Biso      1.000     C          0.097165  
         C43       1.0000    0.61990   0.01050   0.05333   Biso      1.000     C          0.095883  
         C44       1.0000    0.29070   0.87640   0.94333   Biso      1.000     C          0.687175  
         C45       1.0000    0.85940   0.33060   0.23267   Biso      1.000     C          -0.086819           
         C46       1.0000    0.67690   0.92730   0.40813   Biso      1.000     C          -0.150074           
         C47       1.0000    0.37640   0.91890   0.68533   Biso      1.000     C          0.681924  
         C48       1.0000    0.25060   0.92630   0.55473   Biso      1.000     C          -0.152296           
         C49       1.0000    0.99840   0.80500   0.56207   Biso      1.000     C          -0.081805           
         C50       1.0000    0.59400   0.01090   0.88713   Biso      1.000     C          -0.148933           
         C51       1.0000    0.60580   0.07400   0.81353   Biso      1.000     C          -0.080959           
         C52       1.0000    0.60580   0.93870   0.14703   Biso      1.000     C          -0.314022           
         C53       1.0000    0.24780   0.98980   0.81123   Biso      1.000     C          -0.144736           
         C54       1.0000    0.33340   0.94050   0.81713   Biso      1.000     C          -0.297672           
         C55       1.0000    0.06080   0.25910   0.81357   Biso      1.000     C          -0.0825   
         C56       1.0000    0.41700   0.01060   0.07543   Biso      1.000     C          -0.149289           
         C57       1.0000    0.67680   0.95250   0.24323   Biso      1.000     C          0.10139   
         C58       1.0000    0.41880   0.07670   0.81993   Biso      1.000     C          -0.142141           
         C59       1.0000    0.99780   0.19260   0.06797   Biso      1.000     C          -0.085714           
         C60       1.0000    0.27650   0.95310   0.72013   Biso      1.000     C          0.098284  
         C61       1.0000    0.54250   0.62360   0.35200   Biso      1.000     C          0.681847  
         C62       1.0000    0.55270   0.20950   0.15433   Biso      1.000     C          0.609653  
         C63       1.0000    0.86060   0.50410   0.23267   Biso      1.000     C          -0.03886  
         C64       1.0000    0.59360   0.58300   0.74210   Biso      1.000     C          -0.149152           
         C65       1.0000    0.27570   0.32320   0.90990   Biso      1.000     C          0.101361  
         C66       1.0000    0.65790   0.58120   0.48660   Biso      1.000     C          -0.142323           
         C67       1.0000    0.80670   0.82960   0.23290   Biso      1.000     C          -0.039918           
         C68       1.0000    0.24730   0.25760   0.81960   Biso      1.000     C          -0.146355           
         C69       1.0000    0.64360   0.50350   0.72920   Biso      1.000     C          -0.032715           
         C70       1.0000    0.67660   0.72350   0.38680   Biso      1.000     C          0.098281  
         C71       1.0000    0.17070   0.19370   0.06340   Biso      1.000     C          -0.039763           
         C72       1.0000    0.08110   0.45750   0.01867   Biso      1.000     C          0.681707  
         C73       1.0000    0.92600   0.53180   0.14687   Biso      1.000     C          -0.080816           
         C74       1.0000    0.47210   0.33100   0.73160   Biso      1.000     C          -0.090517           
         C75       1.0000    0.19950   0.25970   0.15150   Biso      1.000     C          -0.081253           
         C76       1.0000    0.66940   0.52880   0.56600   Biso      1.000     C          -0.086717           
         C77       1.0000    0.07370   0.32430   0.88807   Biso      1.000     C          -0.152386           
         C78       1.0000    0.19500   0.19340   0.89540   Biso      1.000     C          -0.081796           
         C79       1.0000    0.60630   0.53070   0.81850   Biso      1.000     C          -0.088175           
         C80       1.0000    0.98910   0.58310   0.22047   Biso      1.000     C          -0.149017           
         C81       1.0000    0.80740   0.80520   0.40130   Biso      1.000     C          -0.085713           
         C82       1.0000    0.41930   0.34290   0.81200   Biso      1.000     C          -0.144933           
         C83       1.0000    0.06130   0.66710   0.48037   Biso      1.000     C          -0.314144           
         C84       1.0000    0.49590   0.35650   0.56600   Biso      1.000     C          -0.038765           
         C85       1.0000    0.87550   0.88480   0.14350   Biso      1.000     C          0.609507  
         C86       1.0000    0.67570   0.74940   0.22140   Biso      1.000     C          -0.152297           
         C87       1.0000    0.12370   0.71110   0.35067   Biso      1.000     C          0.699979  
         C88       1.0000    0.99000   0.38000   0.24307   Biso      1.000     C          0.097177  
         C89       1.0000    0.98950   0.60940   0.38667   Biso      1.000     C          0.095959  
         C90       1.0000    0.05950   0.39290   0.15047   Biso      1.000     C          -0.297675           
         C91       1.0000    0.41690   0.40600   0.55380   Biso      1.000     C          -0.149002           
         C92       1.0000    0.65680   0.44730   0.82100   Biso      1.000     C          0.609817  
         C93       1.0000    0.01020   0.25800   0.14457   Biso      1.000     C          -0.144716           
         C94       1.0000    0.46820   0.39420   0.48020   Biso      1.000     C          -0.080948           
         C95       1.0000    0.55240   0.34300   0.47860   Biso      1.000     C          0.614604  
         C96       1.0000    0.74090   0.80170   0.14690   Biso      1.000     C          -0.082531           
         C97       1.0000    0.12360   0.41430   0.27667   Biso      1.000     C          0.687231  
         C98       1.0000    0.11460   0.12500   0.15270   Biso      1.000     C          0.605418  
         C99       1.0000    0.07270   0.74960   0.74147   Biso      1.000     C          -0.149928           
         C100      1.0000    0.60710   0.66660   0.48380   Biso      1.000     C          -0.297762           
         C101      1.0000    0.74200   0.75220   0.47790   Biso      1.000     C          -0.144673           
         C102      1.0000    0.33290   0.39420   0.81370   Biso      1.000     C          -0.314059           
         F1        1.0000    0.08140   0.56780   0.52897   Biso      1.000     F          -0.205009           
         F2        1.0000    0.56090   0.96660   0.40823   Biso      1.000     F          -0.178534           
         F3        1.0000    0.33540   0.48320   0.01220   Biso      1.000     F          -0.207454           
         F4        1.0000    0.43220   0.91860   0.76963   Biso      1.000     F          -0.212702           
         F5        1.0000    0.14780   0.66460   0.67887   Biso      1.000     F          -0.207487           
         F6        1.0000    0.18030   0.76610   0.43437   Biso      1.000     F          -0.21113  
         F7        1.0000    0.33580   0.85290   0.61843   Biso      1.000     F          -0.189751           
         F8        1.0000    0.33080   0.85040   0.01143   Biso      1.000     F          -0.192431           
         F9        1.0000    0.40520   0.96660   0.55713   Biso      1.000     F          -0.184898           
         F10       1.0000    0.08140   0.51360   0.10297   Biso      1.000     F          -0.212595           
         F11       1.0000    0.23380   0.81930   0.86363   Biso      1.000     F          -0.2127   
         F12       1.0000    0.48640   0.91860   0.19563   Biso      1.000     F          -0.205096           
         F13       1.0000    0.58580   0.81970   0.10103   Biso      1.000     F          -0.21108  
         F14       1.0000    0.48640   0.56780   0.43630   Biso      1.000     F          -0.212621           
         F15       1.0000    0.14710   0.48290   0.95177   Biso      1.000     F          -0.189708           
         F16       1.0000    0.23390   0.41420   0.76770   Biso      1.000     F          -0.211081           
         F17       1.0000    0.43220   0.51360   0.86230   Biso      1.000     F          -0.205034           
         F18       1.0000    0.56140   0.59480   0.22380   Biso      1.000     F          -0.184908           
         F19       1.0000    0.58550   0.76620   0.53030   Biso      1.000     F          -0.212682           
         F20       1.0000    0.51960   0.66920   0.67810   Biso      1.000     F          -0.192461           
         F21       1.0000    0.10520   0.36660   0.40747   Biso      1.000     F          -0.196396           
         F22       1.0000    0.51710   0.66420   0.28510   Biso      1.000     F          -0.189731           
         F23       1.0000    0.40570   0.43910   0.07490   Biso      1.000     F          -0.178506           
         F24       1.0000    0.14950   0.66870   0.28647   Biso      1.000     F          -0.21773  
         F25       1.0000    0.63340   0.73860   0.74080   Biso      1.000     F          -0.196377           
         F26       1.0000    0.26140   0.89480   0.07413   Biso      1.000     F          -0.196346           
         F27       1.0000    0.14960   0.48040   0.34477   Biso      1.000     F          -0.19248  
         F28       1.0000    0.33130   0.48080   0.61980   Biso      1.000     F          -0.217697           
         F29       1.0000    0.18070   0.41450   0.19697   Biso      1.000     F          -0.21267  
         F30       1.0000    0.63350   0.89500   0.89043   Biso      1.000     F          -0.164164           
         F31       1.0000    0.10500   0.73850   0.22377   Biso      1.000     F          -0.164157           
         F32       1.0000    0.51920   0.85050   0.95313   Biso      1.000     F          -0.217712           
         F33       1.0000    0.03340   0.59430   0.74157   Biso      1.000     F          -0.178509           
         F34       1.0000    0.03340   0.43860   0.89047   Biso      1.000     F          -0.184866           
         F35       1.0000    0.26150   0.36650   0.55710   Biso      1.000     F          -0.164113           
         F36       1.0000    0.51680   0.85220   0.34553   Biso      1.000     F          -0.207508           
         H1        1.0000    0.03290   0.43280   0.46907   Biso      1.000     H          0.112556  
         H2        1.0000    0.03250   0.60090   0.15957   Biso      1.000     H          0.113027  
         H3        1.0000    0.97300   0.14900   0.12887   Biso      1.000     H          0.122002  
         H4        1.0000    0.92270   0.59630   0.59087   Biso      1.000     H          0.124664  
         H5        1.0000    0.92200   0.32480   0.04177   Biso      1.000     H          0.123896  
         H6        1.0000    0.07670   0.81610   0.93037   Biso      1.000     H          0.11921   
         H7        1.0000    0.09860   0.73190   0.80137   Biso      1.000     H          0.112275  
         H8        1.0000    0.99340   0.73640   0.37467   Biso      1.000     H          0.121694  
         H9        1.0000    0.92690   0.51500   0.03597   Biso      1.000     H          0.117449  
         H10       1.0000    0.09990   0.36790   0.82807   Biso      1.000     H          0.114977  
         H11       1.0000    0.81490   0.50900   0.45697   Biso      1.000     H          0.121831  
         H12       1.0000    0.97390   0.82400   0.50067   Biso      1.000     H          0.121835  
         H13       1.0000    0.92470   0.41030   0.59677   Biso      1.000     H          0.120289  
         H14       1.0000    0.81550   0.30480   0.17357   Biso      1.000     H          0.119399  
         H15       1.0000    0.99380   0.25760   0.25667   Biso      1.000     H          0.12296   
         H16       1.0000    0.07830   0.25990   0.70247   Biso      1.000     H          0.117404  
         H17       1.0000    0.69410   0.18510   0.12363   Biso      1.000     H          0.121802  
         H18       1.0000    0.17600   0.02700   0.79553   Biso      1.000     H          0.122071  
         H19       1.0000    0.85010   0.02610   0.16733   Biso      1.000     H          0.1218    
         H20       1.0000    0.48930   0.18450   0.84023   Biso      1.000     H          0.119439  
         H21       1.0000    0.67360   0.07730   0.25753   Biso      1.000     H          0.124572  
         H22       1.0000    0.69520   0.51070   0.50690   Biso      1.000     H          0.119376  
         H23       1.0000    0.17600   0.14990   0.83400   Biso      1.000     H          0.121803  
         H24       1.0000    0.74010   0.81840   0.03580   Biso      1.000     H          0.117407  
         H25       1.0000    0.85100   0.82400   0.46220   Biso      1.000     H          0.122038  
         H26       1.0000    0.18160   0.92170   0.36913   Biso      1.000     H          0.117376  
         H27       1.0000    0.58970   0.51440   0.93010   Biso      1.000     H          0.120184  
         H28       1.0000    0.49100   0.30590   0.79030   Biso      1.000     H          0.121826  
         H29       1.0000    0.26360   0.25700   0.70800   Biso      1.000     H          0.121697  
         H30       1.0000    0.67520   0.59720   0.37510   Biso      1.000     H          0.123875  
         H31       1.0000    0.56720   0.60010   0.80240   Biso      1.000     H          0.112575  
         H32       1.0000    0.26810   0.36670   0.13470   Biso      1.000     H          0.11228   
         H33       1.0000    0.63210   0.73200   0.16140   Biso      1.000     H          0.114939  
         H34       1.0000    0.39910   0.43160   0.49290   Biso      1.000     H          0.113044  
         H35       1.0000    0.18390   0.26060   0.26370   Biso      1.000     H          0.119203  
         H36       1.0000    0.48500   0.41190   0.36930   Biso      1.000     H          0.117468  
         H37       1.0000    0.74240   0.73620   0.59000   Biso      1.000     H          0.122917  
         H38       1.0000    0.73940   0.92330   0.59703   Biso      1.000     H          0.119178  
         H39       1.0000    0.48560   0.07530   0.26343   Biso      1.000     H          0.12023   
         H40       1.0000    0.63330   0.90140   0.46803   Biso      1.000     H          0.11232   
         H41       1.0000    0.26800   0.90010   0.49473   Biso      1.000     H          0.114926  
         H42       1.0000    0.56840   0.96750   0.82623   Biso      1.000     H          0.113019  
         H43       1.0000    0.40370   0.32640   0.92420   Biso      1.000     H          0.124661  
         H44       1.0000    0.26380   0.00620   0.92333   Biso      1.000     H          0.122936  
         H45       1.0000    0.39990   0.96710   0.13573   Biso      1.000     H          0.112591  
         H46       1.0000    0.40280   0.07800   0.70843   Biso      1.000     H          0.123827  
         H47       1.0000    0.74300   0.00660   0.04133   Biso      1.000     H          0.121687  
         H48       1.0000    0.58810   0.07310   0.70263   Biso      1.000     H          0.117499  
         O1        1.0000    0.86850   0.90850   0.00130   Biso      1.000     O          -0.533166           
         O2        1.0000    0.69440   0.42640   0.73790   Biso      1.000     O          -0.557819           
         O3        1.0000    0.09280   0.06530   0.07130   Biso      1.000     O          -0.559656           
         O4        1.0000    0.57280   0.30550   0.56090   Biso      1.000     O          -0.555091           
         O5        1.0000    0.57490   0.37240   0.33490   Biso      1.000     O          -0.539691           
         O6        1.0000    0.93420   0.90650   0.22740   Biso      1.000     O          -0.558904           
         O7        1.0000    0.62680   0.42430   0.96380   Biso      1.000     O          -0.531076           
         O8        1.0000    0.97250   0.90720   0.73797   Biso      1.000     O          -0.55967  
         O9        1.0000    0.09170   0.13150   0.29840   Biso      1.000     O          -0.537458           
         O10       1.0000    0.57570   0.20250   0.29713   Biso      1.000     O          -0.530978           
         O11       1.0000    0.73200   0.30560   0.40457   Biso      1.000     O          -0.557773           
         O12       1.0000    0.04000   0.13150   0.66797   Biso      1.000     O          -0.533222           
         O13       1.0000    0.79750   0.42510   0.00157   Biso      1.000     O          -0.539671           
         O14       1.0000    0.97230   0.06580   0.89407   Biso      1.000     O          -0.558952           
         O15       1.0000    0.86850   0.96020   0.63173   Biso      1.000     O          -0.537474           
         O16       1.0000    0.03980   0.90830   0.96507   Biso      1.000     O          -0.53746  
         O17       1.0000    0.09150   0.96000   0.33463   Biso      1.000     O          -0.533148           
         O18       1.0000    0.79750   0.37320   0.63047   Biso      1.000     O          -0.531013           
         O19       1.0000    0.93470   0.02750   0.40463   Biso      1.000     O          -0.559558           
         O20       1.0000    0.69450   0.26730   0.89423   Biso      1.000     O          -0.555076           
         O21       1.0000    0.62760   0.20250   0.66823   Biso      1.000     O          -0.539665           
         O22       1.0000    0.09350   0.02770   0.56073   Biso      1.000     O          -0.55888  
         O23       1.0000    0.73270   0.42720   0.22757   Biso      1.000     O          -0.555125           
         O24       1.0000    0.57360   0.26800   0.07123   Biso      1.000     O          -0.55775  
         Zn1       1.0000    0.73376   0.36687   0.81575   Biso      1.000     Zn          0.933136  
         Zn2       1.0000    0.03347   0.96650   0.14879   Biso      1.000     Zn          0.936549  
         Zn3       1.0000    0.03350   0.06697   0.48212   Biso      1.000     Zn          0.936532  
         Zn4       1.0000    0.63313   0.36689   0.14908   Biso      1.000     Zn          0.93317   
         Zn5       1.0000    0.63311   0.26624   0.48241   Biso      1.000     Zn          0.93314   
         Zn6       1.0000    0.93303   0.96653   0.81545   Biso      1.000     Zn          0.936572 