
##########################################################################
#               Crystallographic Information Format file
#               Produced by PyCifRW module
#
#  This is a CIF file.  CIF has been adopted by the International
#  Union of Crystallography as the standard for data archiving and
#  transmission.
#
#  For information on this file format, follow the CIF links at
#  http://www.iucr.org
##########################################################################

data_image0

_cell_length_a                          9.4204
_cell_length_b                          9.4204
_cell_length_c                          16.449
_cell_angle_alpha                       88.5121
_cell_angle_beta                        88.5121
_cell_angle_gamma                       83.7222
_symmetry_space_group_name_H-M          'P 1'
_symmetry_int_tables_number             1
loop_
  _symmetry_equiv_pos_as_xyz
         'x, y, z' 
loop_
  _atom_site_label
  _atom_site_occupancy
  _atom_site_fract_x
  _atom_site_fract_y
  _atom_site_fract_z
  _atom_site_thermal_displace_type
  _atom_site_B_iso_or_equiv
  _atom_site_type_symbol
  _atom_site_charge
         C1        1.0000    0.31820   0.03800   0.01140   Biso      1.000     C          -0.07357899999999999          
         C2        1.0000    0.24120   0.51340   0.40170   Biso      1.000     C          0.014269  
         C3        1.0000    0.28450   0.57050   0.66070   Biso      1.000     C          -0.037121           
         C4        1.0000    0.96200   0.68180   0.48860   Biso      1.000     C          -0.073613           
         C5        1.0000    0.48660   0.75880   0.09830   Biso      1.000     C          0.014322  
         C6        1.0000    0.42950   0.71550   0.83930   Biso      1.000     C          -0.037143999999999996         
         C7        1.0000    0.75880   0.48660   0.59830   Biso      1.000     C          0.014269  
         C8        1.0000    0.71550   0.42950   0.33930   Biso      1.000     C          -0.037107999999999995         
         C9        1.0000    0.03800   0.31820   0.51140   Biso      1.000     C          -0.07358300000000001          
         C10       1.0000    0.51340   0.24120   0.90170   Biso      1.000     C          0.014341999999999999          
         C11       1.0000    0.68180   0.96200   0.98860   Biso      1.000     C          -0.07360599999999999          
         C12       1.0000    0.57050   0.28450   0.16070   Biso      1.000     C          -0.037146           
         Cu1       1.0000    0.49409   0.13507   0.00207   Biso      1.000     Cu          0.40002   
         Cu2       1.0000    0.59840   0.40160   0.75000   Biso      1.000     Cu          0.49535799999999997           
         Cu3       1.0000    0.36540   0.63460   0.75000   Biso      1.000     Cu          0.246288  
         Cu4       1.0000    0.63460   0.36540   0.25000   Biso      1.000     Cu          0.246281  
         Cu5       1.0000    0.00000   0.00000   0.50000   Biso      1.000     Cu          0.47816400000000003           
         Cu6       1.0000    0.00000   0.00000   0.00000   Biso      1.000     Cu          0.478177  
         Cu7       1.0000    0.13507   0.49409   0.50207   Biso      1.000     Cu          0.400097  
         Cu8       1.0000    0.50591   0.86493   0.99793   Biso      1.000     Cu          0.399988  
         Cu9       1.0000    0.86493   0.50591   0.49793   Biso      1.000     Cu          0.400044  
         Cu10      1.0000    0.40160   0.59840   0.25000   Biso      1.000     Cu          0.495328  
         N1        1.0000    0.97580   0.80140   0.48650   Biso      1.000     N          -0.30122  
         N2        1.0000    0.46610   0.69450   0.15730   Biso      1.000     N          -0.336214           
         N3        1.0000    0.45840   0.77020   0.89890   Biso      1.000     N          -0.27604  
         N4        1.0000    0.19860   0.02420   0.01350   Biso      1.000     N          -0.301298           
         N5        1.0000    0.69450   0.46610   0.65730   Biso      1.000     N          -0.336185           
         N6        1.0000    0.54160   0.22980   0.10110   Biso      1.000     N          -0.276022           
         N7        1.0000    0.02420   0.19860   0.51350   Biso      1.000     N          -0.30125100000000005          
         N8        1.0000    0.53390   0.30550   0.84270   Biso      1.000     N          -0.33624  
         N9        1.0000    0.80140   0.97580   0.98650   Biso      1.000     N          -0.301263           
         N10       1.0000    0.22980   0.54160   0.60110   Biso      1.000     N          -0.276059           
         N11       1.0000    0.77020   0.45840   0.39890   Biso      1.000     N          -0.276074           
         N12       1.0000    0.30550   0.53390   0.34270   Biso      1.000     N          -0.336181 