
##########################################################################
#               Crystallographic Information Format file
#               Produced by PyCifRW module
#
#  This is a CIF file.  CIF has been adopted by the International
#  Union of Crystallography as the standard for data archiving and
#  transmission.
#
#  For information on this file format, follow the CIF links at
#  http://www.iucr.org
##########################################################################

data_image0

_cell_length_a                          11.47
_cell_length_b                          7.782
_cell_length_c                          6.945
_cell_angle_alpha                       90
_cell_angle_beta                        105.29
_cell_angle_gamma                       90
_symmetry_space_group_name_H-M          'P 1'
_symmetry_int_tables_number             1
loop_
  _symmetry_equiv_pos_as_xyz
         'x, y, z' 
loop_
  _atom_site_label
  _atom_site_occupancy
  _atom_site_fract_x
  _atom_site_fract_y
  _atom_site_fract_z
  _atom_site_thermal_displace_type
  _atom_site_B_iso_or_equiv
  _atom_site_type_symbol
  _atom_site_charge
         C1        1.0000    0.51220   0.00000   0.11070   Biso      1.000     C          0.022274000000000002          
         C2        1.0000    0.96350   0.32900   0.30710   Biso      1.000     C          0.052713  
         C3        1.0000    0.66220   0.00000   0.45010   Biso      1.000     C          0.004342  
         C4        1.0000    0.03650   0.32900   0.69290   Biso      1.000     C          0.052713  
         C5        1.0000    0.79220   0.00000   0.56810   Biso      1.000     C          0.155801  
         C6        1.0000    0.03650   0.67100   0.69290   Biso      1.000     C          0.052713  
         C7        1.0000    0.96350   0.67100   0.30710   Biso      1.000     C          0.052714  
         C8        1.0000    0.64330   0.00000   0.22590   Biso      1.000     C          0.037202  
         C9        1.0000    0.48780   0.00000   0.88930   Biso      1.000     C          0.022274000000000002          
         C10       1.0000    0.20780   0.00000   0.43190   Biso      1.000     C          0.155801  
         C11       1.0000    0.33780   0.00000   0.54990   Biso      1.000     C          0.004342  
         C12       1.0000    0.35670   0.00000   0.77410   Biso      1.000     C          0.037202  
         Cd1       1.0000    0.00000   0.00000   0.00000   Biso      1.000     Cd          0.9282600000000001  
         N1        1.0000    0.80990   0.00000   0.78520   Biso      1.000     N          -0.19962  
         N2        1.0000    0.94420   0.21990   0.19070   Biso      1.000     N          -0.357613           
         N3        1.0000    0.94420   0.78010   0.19070   Biso      1.000     N          -0.357614           
         N4        1.0000    0.05580   0.78010   0.80930   Biso      1.000     N          -0.357613           
         N5        1.0000    0.05580   0.21990   0.80930   Biso      1.000     N          -0.357613           
         N6        1.0000    0.19010   0.00000   0.21480   Biso      1.000     N          -0.19961900000000002          
         Ni1       1.0000    0.00000   0.50000   0.50000   Biso      1.000     Ni          0.25134 