
##########################################################################
#               Crystallographic Information Format file
#               Produced by PyCifRW module
#
#  This is a CIF file.  CIF has been adopted by the International
#  Union of Crystallography as the standard for data archiving and
#  transmission.
#
#  For information on this file format, follow the CIF links at
#  http://www.iucr.org
##########################################################################

data_image0

_cell_length_a                          19.21
_cell_length_b                          19.21
_cell_length_c                          6.9158
_cell_angle_alpha                       90
_cell_angle_beta                        90
_cell_angle_gamma                       90
_symmetry_space_group_name_H-M          'P 1'
_symmetry_int_tables_number             1
loop_
  _symmetry_equiv_pos_as_xyz
         'x, y, z' 
loop_
  _atom_site_label
  _atom_site_occupancy
  _atom_site_fract_x
  _atom_site_fract_y
  _atom_site_fract_z
  _atom_site_thermal_displace_type
  _atom_site_B_iso_or_equiv
  _atom_site_type_symbol
  _atom_site_charge
         C1        1.0000    0.61889   0.48797   0.64920   Biso      1.000     C          0.603857  
         C2        1.0000    0.57420   0.25000   0.98550   Biso      1.000     C          -0.019259000000000002         
         C3        1.0000    0.50920   0.25000   0.34680   Biso      1.000     C          -0.115125           
         C4        1.0000    0.48797   0.61889   0.64920   Biso      1.000     C          0.603858  
         C5        1.0000    0.47528   0.68730   0.74540   Biso      1.000     C          -0.031173000000000003         
         C6        1.0000    0.44350   0.68759   0.92760   Biso      1.000     C          -0.087382           
         C7        1.0000    0.88470   0.25000   0.80180   Biso      1.000     C          0.596418  
         C8        1.0000    0.92580   0.25000   0.98550   Biso      1.000     C          -0.019253           
         C9        1.0000    0.99080   0.25000   0.34680   Biso      1.000     C          -0.11510899999999999          
         C10       1.0000    0.31270   0.52472   0.25460   Biso      1.000     C          -0.031177           
         C11       1.0000    0.68730   0.47528   0.74540   Biso      1.000     C          -0.031176           
         C12       1.0000    0.68759   0.44350   0.92760   Biso      1.000     C          -0.087383           
         C13       1.0000    0.25000   0.61530   0.80180   Biso      1.000     C          0.596427  
         C14       1.0000    0.25000   0.57420   0.98550   Biso      1.000     C          -0.019262           
         C15       1.0000    0.88111   0.01203   0.64920   Biso      1.000     C          0.603838  
         C16       1.0000    0.81270   0.02472   0.74540   Biso      1.000     C          -0.031172000000000002         
         C17       1.0000    0.81241   0.05650   0.92760   Biso      1.000     C          -0.087377           
         C18       1.0000    0.25000   0.50920   0.34680   Biso      1.000     C          -0.115125           
         C19       1.0000    0.05650   0.81241   0.92760   Biso      1.000     C          -0.087378           
         C20       1.0000    0.25000   0.88470   0.80180   Biso      1.000     C          0.596417  
         C21       1.0000    0.02472   0.81270   0.74540   Biso      1.000     C          -0.031175           
         C22       1.0000    0.61530   0.25000   0.80180   Biso      1.000     C          0.596426  
         C23       1.0000    0.31241   0.55650   0.07240   Biso      1.000     C          -0.087382           
         C24       1.0000    0.11889   0.98797   0.35080   Biso      1.000     C          0.603838  
         C25       1.0000    0.18730   0.97528   0.25460   Biso      1.000     C          -0.031172000000000002         
         C26       1.0000    0.18759   0.94350   0.07240   Biso      1.000     C          -0.087376           
         C27       1.0000    0.98797   0.38111   0.35080   Biso      1.000     C          0.603851  
         C28       1.0000    0.97528   0.31270   0.25460   Biso      1.000     C          -0.031179000000000002         
         C29       1.0000    0.94350   0.31241   0.07240   Biso      1.000     C          -0.087382           
         C30       1.0000    0.51203   0.11889   0.35080   Biso      1.000     C          0.603862  
         C31       1.0000    0.52472   0.18730   0.25460   Biso      1.000     C          -0.031175           
         C32       1.0000    0.55650   0.18759   0.07240   Biso      1.000     C          -0.087376           
         C33       1.0000    0.61889   0.01203   0.64920   Biso      1.000     C          0.603851  
         C34       1.0000    0.68730   0.02472   0.74540   Biso      1.000     C          -0.031173000000000003         
         C35       1.0000    0.68759   0.05650   0.92760   Biso      1.000     C          -0.087383           
         C36       1.0000    0.75000   0.49080   0.65320   Biso      1.000     C          -0.115131           
         C37       1.0000    0.88111   0.48797   0.64920   Biso      1.000     C          0.603862  
         C38       1.0000    0.81270   0.47528   0.74540   Biso      1.000     C          -0.031181           
         C39       1.0000    0.81241   0.44350   0.92760   Biso      1.000     C          -0.087377           
         C40       1.0000    0.01203   0.88111   0.64920   Biso      1.000     C          0.603837  
         C41       1.0000    0.01203   0.61889   0.64920   Biso      1.000     C          0.603852  
         C42       1.0000    0.38111   0.51203   0.35080   Biso      1.000     C          0.603857  
         C43       1.0000    0.31270   0.97528   0.25460   Biso      1.000     C          -0.031172000000000002         
         C44       1.0000    0.18730   0.52472   0.25460   Biso      1.000     C          -0.031181999999999998         
         C45       1.0000    0.11889   0.51203   0.35080   Biso      1.000     C          0.603862  
         C46       1.0000    0.97528   0.18730   0.25460   Biso      1.000     C          -0.031177           
         C47       1.0000    0.07420   0.75000   0.01450   Biso      1.000     C          -0.019252000000000002         
         C48       1.0000    0.11530   0.75000   0.19820   Biso      1.000     C          0.596417  
         C49       1.0000    0.75000   0.11530   0.19820   Biso      1.000     C          0.596417  
         C50       1.0000    0.18759   0.55650   0.07240   Biso      1.000     C          -0.087377           
         C51       1.0000    0.31241   0.94350   0.07240   Biso      1.000     C          -0.087383           
         C52       1.0000    0.52472   0.31270   0.25460   Biso      1.000     C          -0.031172000000000002         
         C53       1.0000    0.55650   0.31241   0.07240   Biso      1.000     C          -0.087381           
         C54       1.0000    0.02472   0.68730   0.74540   Biso      1.000     C          -0.031177999999999997         
         C55       1.0000    0.38111   0.98797   0.35080   Biso      1.000     C          0.603851  
         C56       1.0000    0.49080   0.75000   0.65320   Biso      1.000     C          -0.115128           
         C57       1.0000    0.42580   0.75000   0.01450   Biso      1.000     C          -0.019258           
         C58       1.0000    0.38470   0.75000   0.19820   Biso      1.000     C          0.596426  
         C59       1.0000    0.44350   0.81241   0.92760   Biso      1.000     C          -0.087376           
         C60       1.0000    0.75000   0.38470   0.19820   Biso      1.000     C          0.596427  
         C61       1.0000    0.94350   0.18759   0.07240   Biso      1.000     C          -0.087376           
         C62       1.0000    0.75000   0.07420   0.01450   Biso      1.000     C          -0.019247999999999998         
         C63       1.0000    0.47528   0.81270   0.74540   Biso      1.000     C          -0.031176           
         C64       1.0000    0.48797   0.88111   0.64920   Biso      1.000     C          0.603861  
         C65       1.0000    0.75000   0.00920   0.65320   Biso      1.000     C          -0.11511199999999999          
         C66       1.0000    0.25000   0.99080   0.34680   Biso      1.000     C          -0.11511099999999999          
         C67       1.0000    0.75000   0.42580   0.01450   Biso      1.000     C          -0.019259000000000002         
         C68       1.0000    0.25000   0.92580   0.98550   Biso      1.000     C          -0.019247999999999998         
         C69       1.0000    0.05650   0.68759   0.92760   Biso      1.000     C          -0.087381           
         C70       1.0000    0.00920   0.75000   0.65320   Biso      1.000     C          -0.11511400000000001          
         C71       1.0000    0.51203   0.38111   0.35080   Biso      1.000     C          0.603858  
         C72       1.0000    0.98797   0.11889   0.35080   Biso      1.000     C          0.603837  
         Cu1       1.0000    0.32736   0.82736   0.50000   Biso      1.000     Cu          0.357704  
         Cu2       1.0000    0.96997   0.53003   0.35189   Biso      1.000     Cu          0.884648  
         Cu3       1.0000    0.96997   0.96997   0.35189   Biso      1.000     Cu          0.884481  
         Cu4       1.0000    0.53003   0.53003   0.35189   Biso      1.000     Cu          0.8846620000000001  
         Cu5       1.0000    0.53003   0.96997   0.35189   Biso      1.000     Cu          0.884625  
         Cu6       1.0000    0.46997   0.03003   0.64811   Biso      1.000     Cu          0.8846209999999999  
         Cu7       1.0000    0.67264   0.32736   0.50000   Biso      1.000     Cu          0.357682  
         Cu8       1.0000    0.03003   0.03003   0.64811   Biso      1.000     Cu          0.8844790000000001  
         Cu9       1.0000    0.46997   0.46997   0.64811   Biso      1.000     Cu          0.8846229999999999  
         Cu10      1.0000    0.17264   0.67264   0.50000   Biso      1.000     Cu          0.357707  
         Cu11      1.0000    0.82736   0.17264   0.50000   Biso      1.000     Cu          0.357721  
         Cu12      1.0000    0.17264   0.82736   0.50000   Biso      1.000     Cu          0.357723  
         Cu13      1.0000    0.32736   0.67264   0.50000   Biso      1.000     Cu          0.357685  
         Cu14      1.0000    0.82736   0.32736   0.50000   Biso      1.000     Cu          0.357709  
         Cu15      1.0000    0.67264   0.17264   0.50000   Biso      1.000     Cu          0.357705  
         Cu16      1.0000    0.03003   0.46997   0.64811   Biso      1.000     Cu          0.8845770000000001  
         H1        1.0000    0.93410   0.35510   0.00830   Biso      1.000     H          0.130267  
         H2        1.0000    0.56590   0.35510   0.00830   Biso      1.000     H          0.130268  
         H3        1.0000    0.14490   0.93410   0.00830   Biso      1.000     H          0.130268  
         H4        1.0000    0.75000   0.98840   0.52860   Biso      1.000     H          0.137348  
         H5        1.0000    0.35510   0.56590   0.00830   Biso      1.000     H          0.13026500000000002           
         H6        1.0000    0.06590   0.64490   0.99170   Biso      1.000     H          0.13026600000000002           
         H7        1.0000    0.98840   0.75000   0.52860   Biso      1.000     H          0.13734100000000002           
         H8        1.0000    0.93410   0.14490   0.00830   Biso      1.000     H          0.13026500000000002           
         H9        1.0000    0.25000   0.48840   0.47140   Biso      1.000     H          0.13735   
         H10       1.0000    0.85510   0.06590   0.99170   Biso      1.000     H          0.130268  
         H11       1.0000    0.25000   0.01160   0.47140   Biso      1.000     H          0.13735   
         H12       1.0000    0.01160   0.25000   0.47140   Biso      1.000     H          0.13733900000000002           
         H13       1.0000    0.43410   0.85510   0.99170   Biso      1.000     H          0.13026500000000002           
         H14       1.0000    0.64490   0.43410   0.99170   Biso      1.000     H          0.13026500000000002           
         H15       1.0000    0.56590   0.14490   0.00830   Biso      1.000     H          0.13026500000000002           
         H16       1.0000    0.43410   0.64490   0.99170   Biso      1.000     H          0.130268  
         H17       1.0000    0.48840   0.25000   0.47140   Biso      1.000     H          0.13735999999999998           
         H18       1.0000    0.51160   0.75000   0.52860   Biso      1.000     H          0.137357  
         H19       1.0000    0.06590   0.85510   0.99170   Biso      1.000     H          0.13026500000000002           
         H20       1.0000    0.14490   0.56590   0.00830   Biso      1.000     H          0.13026600000000002           
         H21       1.0000    0.85510   0.43410   0.99170   Biso      1.000     H          0.13026600000000002           
         H22       1.0000    0.64490   0.06590   0.99170   Biso      1.000     H          0.13026600000000002           
         H23       1.0000    0.35510   0.93410   0.00830   Biso      1.000     H          0.13026600000000002           
         H24       1.0000    0.75000   0.51160   0.52860   Biso      1.000     H          0.137351  
         O1        1.0000    0.63198   0.19197   0.73350   Biso      1.000     O          -0.47674099999999997          
         O2        1.0000    0.43386   0.53227   0.26150   Biso      1.000     O          -0.535708           
         O3        1.0000    0.88177   0.98410   0.48760   Biso      1.000     O          -0.524026           
         O4        1.0000    0.93386   0.03227   0.73850   Biso      1.000     O          -0.535612           
         O5        1.0000    0.69197   0.13198   0.26650   Biso      1.000     O          -0.47673000000000004          
         O6        1.0000    0.98410   0.61823   0.48760   Biso      1.000     O          -0.524011           
         O7        1.0000    0.03227   0.56614   0.73850   Biso      1.000     O          -0.535624           
         O8        1.0000    0.13198   0.80803   0.26650   Biso      1.000     O          -0.476733           
         O9        1.0000    0.51590   0.88177   0.48760   Biso      1.000     O          -0.5240100000000001           
         O10       1.0000    0.46773   0.93386   0.73850   Biso      1.000     O          -0.535729           
         O11       1.0000    0.36802   0.69197   0.26650   Biso      1.000     O          -0.476736           
         O12       1.0000    0.80803   0.36802   0.26650   Biso      1.000     O          -0.476742           
         O13       1.0000    0.38177   0.01590   0.51240   Biso      1.000     O          -0.524017           
         O14       1.0000    0.19197   0.86802   0.73350   Biso      1.000     O          -0.476732           
         O15       1.0000    0.11823   0.48410   0.51240   Biso      1.000     O          -0.5240130000000001           
         O16       1.0000    0.06614   0.53227   0.26150   Biso      1.000     O          -0.535722           
         O17       1.0000    0.30803   0.63198   0.73350   Biso      1.000     O          -0.476739           
         O18       1.0000    0.01590   0.11823   0.51240   Biso      1.000     O          -0.524026           
         O19       1.0000    0.96773   0.06614   0.26150   Biso      1.000     O          -0.535613           
         O20       1.0000    0.86802   0.30803   0.73350   Biso      1.000     O          -0.476729           
         O21       1.0000    0.48410   0.38177   0.51240   Biso      1.000     O          -0.523979           
         O22       1.0000    0.53227   0.43386   0.26150   Biso      1.000     O          -0.535705           
         O23       1.0000    0.43386   0.96773   0.26150   Biso      1.000     O          -0.535618           
         O24       1.0000    0.38177   0.48410   0.51240   Biso      1.000     O          -0.5239779999999999           
         O25       1.0000    0.56614   0.46773   0.73850   Biso      1.000     O          -0.535708           
         O26       1.0000    0.36802   0.80803   0.26650   Biso      1.000     O          -0.47674099999999997          
         O27       1.0000    0.19197   0.63198   0.73350   Biso      1.000     O          -0.47673999999999994          
         O28       1.0000    0.11823   0.01590   0.51240   Biso      1.000     O          -0.524027           
         O29       1.0000    0.06614   0.96773   0.26150   Biso      1.000     O          -0.535611           
         O30       1.0000    0.30803   0.86802   0.73350   Biso      1.000     O          -0.47673000000000004          
         O31       1.0000    0.01590   0.38177   0.51240   Biso      1.000     O          -0.524022           
         O32       1.0000    0.96773   0.43386   0.26150   Biso      1.000     O          -0.535609           
         O33       1.0000    0.86802   0.19197   0.73350   Biso      1.000     O          -0.476734           
         O34       1.0000    0.48410   0.11823   0.51240   Biso      1.000     O          -0.5240090000000001           
         O35       1.0000    0.53227   0.06614   0.26150   Biso      1.000     O          -0.53573  
         O36       1.0000    0.61823   0.51590   0.48760   Biso      1.000     O          -0.523979           
         O37       1.0000    0.63198   0.30803   0.73350   Biso      1.000     O          -0.476736           
         O38       1.0000    0.80803   0.13198   0.26650   Biso      1.000     O          -0.476731           
         O39       1.0000    0.88177   0.51590   0.48760   Biso      1.000     O          -0.524003           
         O40       1.0000    0.93386   0.46773   0.73850   Biso      1.000     O          -0.535736           
         O41       1.0000    0.69197   0.36802   0.26650   Biso      1.000     O          -0.476738           
         O42       1.0000    0.98410   0.88177   0.48760   Biso      1.000     O          -0.524027           
         O43       1.0000    0.03227   0.93386   0.73850   Biso      1.000     O          -0.535615           
         O44       1.0000    0.13198   0.69197   0.26650   Biso      1.000     O          -0.47673000000000004          
         O45       1.0000    0.51590   0.61823   0.48760   Biso      1.000     O          -0.523979           
         O46       1.0000    0.46773   0.56614   0.73850   Biso      1.000     O          -0.535705           
         O47       1.0000    0.56614   0.03227   0.73850   Biso      1.000     O          -0.535617           
         O48       1.0000    0.61823   0.98410   0.48760   Biso      1.000     O          -0.524018 