
##########################################################################
#               Crystallographic Information Format file
#               Produced by PyCifRW module
#
#  This is a CIF file.  CIF has been adopted by the International
#  Union of Crystallography as the standard for data archiving and
#  transmission.
#
#  For information on this file format, follow the CIF links at
#  http://www.iucr.org
##########################################################################

data_image0

_cell_length_a                          14.0243
_cell_length_b                          14.0243
_cell_length_c                          17.9178
_cell_angle_alpha                       103.787
_cell_angle_beta                        103.787
_cell_angle_gamma                       113.02
_symmetry_space_group_name_H-M          'P 1'
_symmetry_int_tables_number             1
loop_
  _symmetry_equiv_pos_as_xyz
         'x, y, z' 
loop_
  _atom_site_label
  _atom_site_occupancy
  _atom_site_fract_x
  _atom_site_fract_y
  _atom_site_fract_z
  _atom_site_thermal_displace_type
  _atom_site_B_iso_or_equiv
  _atom_site_type_symbol
  _atom_site_charge
         C1        1.0000    0.17340   0.80280   0.34460   Biso      1.000     C          0.142668  
         C2        1.0000    0.20710   0.51930   0.78860   Biso      1.000     C          0.090547  
         C3        1.0000    0.29940   0.51620   0.83300   Biso      1.000     C          -0.213609           
         C4        1.0000    0.29180   0.42120   0.84460   Biso      1.000     C          0.139779  
         C5        1.0000    0.18530   0.32910   0.80720   Biso      1.000     C          -0.19742  
         C6        1.0000    0.09630   0.33710   0.76520   Biso      1.000     C          0.128223  
         C7        1.0000    0.82610   0.20490   0.84640   Biso      1.000     C          0.562067  
         C8        1.0000    0.95200   0.10400   0.09260   Biso      1.000     C          0.589997  
         C9        1.0000    0.88810   0.15110   0.96780   Biso      1.000     C          -0.137034           
         C10       1.0000    0.80310   0.14410   0.90440   Biso      1.000     C          -0.008395           
         C11       1.0000    0.69260   0.08420   0.89560   Biso      1.000     C          -0.129413           
         C12       1.0000    0.66720   0.03140   0.95000   Biso      1.000     C          -0.112373           
         C13       1.0000    0.75220   0.03840   0.01340   Biso      1.000     C          -0.117602           
         C14       1.0000    0.86260   0.09820   0.02220   Biso      1.000     C          -0.019164           
         C15       1.0000    0.45890   0.90430   0.59200   Biso      1.000     C          -0.221358           
         C16       1.0000    0.56070   0.00270   0.63440   Biso      1.000     C          0.108696  
         C17       1.0000    0.48610   0.09990   0.57900   Biso      1.000     C          0.097355  
         C18       1.0000    0.38300   0.00900   0.53660   Biso      1.000     C          -0.19719  
         C19       1.0000    0.26120   0.97500   0.01340   Biso      1.000     C          -0.117262           
         C20       1.0000    0.28280   0.91860   0.95000   Biso      1.000     C          -0.109858           
         C21       1.0000    0.20300   0.81140   0.89560   Biso      1.000     C          -0.134489           
         C22       1.0000    0.10130   0.76030   0.90440   Biso      1.000     C          -0.010153           
         C23       1.0000    0.07970   0.81670   0.96780   Biso      1.000     C          -0.132089           
         C24       1.0000    0.14060   0.98860   0.09260   Biso      1.000     C          0.592837  
         C25       1.0000    0.38880   0.41580   0.89680   Biso      1.000     C          -0.086119           
         C26       1.0000    0.02030   0.64150   0.84640   Biso      1.000     C          0.563101  
         C27       1.0000    0.22810   0.87190   0.30720   Biso      1.000     C          -0.198822           
         C28       1.0000    0.06680   0.78360   0.33300   Biso      1.000     C          -0.214841           
         C29       1.0000    0.01930   0.83150   0.28860   Biso      1.000     C          0.08999   
         C30       1.0000    0.23100   0.75800   0.39680   Biso      1.000     C          -0.087256           
         C31       1.0000    0.25690   0.80370   0.48980   Biso      1.000     C          -0.098818           
         C32       1.0000    0.36720   0.90540   0.54180   Biso      1.000     C          0.139304  
         C33       1.0000    0.17810   0.91890   0.26520   Biso      1.000     C          0.134123  
         C34       1.0000    0.15960   0.92400   0.02220   Biso      1.000     C          -0.02057  
         C35       1.0000    0.43610   0.48290   0.98980   Biso      1.000     C          -0.094874           
         C36       1.0000    0.27760   0.40360   0.03660   Biso      1.000     C          -0.198512           
         C37       1.0000    0.95490   0.07610   0.34640   Biso      1.000     C          0.560358  
         C38       1.0000    0.85400   0.20200   0.59260   Biso      1.000     C          0.590246  
         C39       1.0000    0.90110   0.13810   0.46780   Biso      1.000     C          -0.136978           
         C40       1.0000    0.89410   0.05310   0.40440   Biso      1.000     C          -0.00649  
         C41       1.0000    0.83420   0.94260   0.39560   Biso      1.000     C          -0.128818           
         C42       1.0000    0.78140   0.91720   0.45000   Biso      1.000     C          -0.112454           
         C43       1.0000    0.78840   0.00220   0.51340   Biso      1.000     C          -0.118766           
         C44       1.0000    0.84820   0.11260   0.52220   Biso      1.000     C          -0.019429           
         C45       1.0000    0.65430   0.70890   0.09200   Biso      1.000     C          -0.223348           
         C46       1.0000    0.75270   0.81070   0.13440   Biso      1.000     C          0.106008  
         C47       1.0000    0.84990   0.73610   0.07900   Biso      1.000     C          0.098517  
         C48       1.0000    0.75900   0.63300   0.03660   Biso      1.000     C          -0.199263           
         C49       1.0000    0.65540   0.61720   0.04180   Biso      1.000     C          0.136796  
         C50       1.0000    0.55370   0.50690   0.98980   Biso      1.000     C          -0.097542           
         C51       1.0000    0.50800   0.48100   0.89680   Biso      1.000     C          -0.088102           
         C52       1.0000    0.58150   0.26930   0.78860   Biso      1.000     C          0.091294  
         C53       1.0000    0.53360   0.31680   0.83300   Biso      1.000     C          -0.21333  
         C54       1.0000    0.22910   0.34290   0.07900   Biso      1.000     C          0.094356  
         C55       1.0000    0.38170   0.32370   0.13440   Biso      1.000     C          0.103904  
         C56       1.0000    0.43770   0.38310   0.09200   Biso      1.000     C          -0.222271           
         C57       1.0000    0.67400   0.40960   0.52220   Biso      1.000     C          -0.019874           
         C58       1.0000    0.72500   0.51120   0.51340   Biso      1.000     C          -0.115051           
         C59       1.0000    0.66860   0.53280   0.45000   Biso      1.000     C          -0.109216           
         C60       1.0000    0.38640   0.42460   0.04180   Biso      1.000     C          0.137563  
         C61       1.0000    0.56140   0.45300   0.39560   Biso      1.000     C          -0.135595           
         C62       1.0000    0.56670   0.32970   0.46780   Biso      1.000     C          -0.133777           
         C63       1.0000    0.73860   0.39060   0.59260   Biso      1.000     C          0.593069  
         C64       1.0000    0.39150   0.27030   0.34640   Biso      1.000     C          0.561919  
         C65       1.0000    0.66890   0.42810   0.76520   Biso      1.000     C          0.133644  
         C66       1.0000    0.62190   0.47810   0.80720   Biso      1.000     C          -0.196232           
         C67       1.0000    0.55280   0.42340   0.84460   Biso      1.000     C          0.144967  
         C68       1.0000    0.51030   0.35130   0.40440   Biso      1.000     C          -0.010059           
         C69       1.0000    0.07370   0.63170   0.63440   Biso      1.000     C          0.100474  
         C70       1.0000    0.13310   0.68770   0.59200   Biso      1.000     C          -0.224975           
         C71       1.0000    0.15360   0.52760   0.53660   Biso      1.000     C          -0.200765           
         C72       1.0000    0.17460   0.63640   0.54180   Biso      1.000     C          0.135946  
         C73       1.0000    0.23290   0.68610   0.48980   Biso      1.000     C          -0.094066           
         C74       1.0000    0.16580   0.63880   0.39680   Biso      1.000     C          -0.086537           
         C75       1.0000    0.26930   0.45710   0.28860   Biso      1.000     C          0.087729  
         C76       1.0000    0.26620   0.54940   0.33300   Biso      1.000     C          -0.213399           
         C77       1.0000    0.17120   0.54180   0.34460   Biso      1.000     C          0.141158  
         C78       1.0000    0.07910   0.43530   0.30720   Biso      1.000     C          -0.197249           
         C79       1.0000    0.08710   0.34630   0.26520   Biso      1.000     C          0.130238  
         C80       1.0000    0.09290   0.47910   0.57900   Biso      1.000     C          0.095108  
         H1        1.0000    0.02520   0.73660   0.35580   Biso      1.000     H          0.12121   
         H2        1.0000    0.94570   0.81590   0.28220   Biso      1.000     H          0.093185  
         H3        1.0000    0.29990   0.76690   0.38700   Biso      1.000     H          0.094321  
         H4        1.0000    0.19650   0.81870   0.49900   Biso      1.000     H          0.099163  
         H5        1.0000    0.32370   0.01530   0.50460   Biso      1.000     H          0.143067  
         H6        1.0000    0.73500   0.00260   0.05020   Biso      1.000     H          0.115117  
         H7        1.0000    0.62170   0.00050   0.66820   Biso      1.000     H          0.109504  
         H8        1.0000    0.45270   0.83730   0.59760   Biso      1.000     H          0.130239  
         H9        1.0000    0.30090   0.88650   0.31140   Biso      1.000     H          0.130058  
         H10       1.0000    0.59240   0.99080   0.94380   Biso      1.000     H          0.101812  
         H11       1.0000    0.63500   0.07940   0.85260   Biso      1.000     H          0.108309  
         H12       1.0000    0.49630   0.16790   0.57340   Biso      1.000     H          0.104466  
         H13       1.0000    0.21860   0.96680   0.24240   Biso      1.000     H          0.10425   
         H14       1.0000    0.14490   0.76030   0.59760   Biso      1.000     H          0.127957  
         H15       1.0000    0.21760   0.77320   0.85260   Biso      1.000     H          0.11589   
         H16       1.0000    0.35140   0.95300   0.94380   Biso      1.000     H          0.099148  
         H17       1.0000    0.31520   0.04760   0.05020   Biso      1.000     H          0.112848  
         H18       1.0000    0.04650   0.66770   0.66820   Biso      1.000     H          0.111512  
         H19       1.0000    0.07710   0.40550   0.57340   Biso      1.000     H          0.102718  
         H20       1.0000    0.18090   0.48930   0.50460   Biso      1.000     H          0.140846  
         H21       1.0000    0.30250   0.68030   0.49900   Biso      1.000     H          0.097451  
         H22       1.0000    0.08710   0.62010   0.38700   Biso      1.000     H          0.093878  
         H23       1.0000    0.33650   0.46630   0.28220   Biso      1.000     H          0.093206  
         H24       1.0000    0.33060   0.61920   0.35580   Biso      1.000     H          0.12053   
         H25       1.0000    0.01050   0.42490   0.31140   Biso      1.000     H          0.130927  
         H26       1.0000    0.02380   0.27560   0.24240   Biso      1.000     H          0.106288  
         H27       1.0000    0.01110   0.78230   0.97400   Biso      1.000     H          0.120868  
         H28       1.0000    0.96290   0.19170   0.97400   Biso      1.000     H          0.124075  
         H29       1.0000    0.36920   0.58060   0.85580   Biso      1.000     H          0.120541  
         H30       1.0000    0.17490   0.26050   0.81140   Biso      1.000     H          0.13053   
         H31       1.0000    0.94170   0.21290   0.47400   Biso      1.000     H          0.124621  
         H32       1.0000    0.82940   0.88500   0.35260   Biso      1.000     H          0.108835  
         H33       1.0000    0.74080   0.84240   0.44380   Biso      1.000     H          0.10165   
         H34       1.0000    0.75260   0.98500   0.55020   Biso      1.000     H          0.114588  
         H35       1.0000    0.58730   0.70270   0.09760   Biso      1.000     H          0.129103  
         H36       1.0000    0.75050   0.87170   0.16820   Biso      1.000     H          0.110361  
         H37       1.0000    0.91790   0.74630   0.07340   Biso      1.000     H          0.103555  
         H38       1.0000    0.76530   0.57370   0.00460   Biso      1.000     H          0.141697  
         H39       1.0000    0.02560   0.27380   0.74240   Biso      1.000     H          0.105105  
         H40       1.0000    0.51690   0.54990   0.88700   Biso      1.000     H          0.094946  
         H41       1.0000    0.56590   0.19570   0.78220   Biso      1.000     H          0.093897  
         H42       1.0000    0.48660   0.27520   0.85580   Biso      1.000     H          0.122178  
         H43       1.0000    0.56870   0.44650   0.99900   Biso      1.000     H          0.098414  
         H44       1.0000    0.71680   0.46860   0.74240   Biso      1.000     H          0.105088  
         H45       1.0000    0.53230   0.26110   0.47400   Biso      1.000     H          0.12086   
         H46       1.0000    0.52320   0.46760   0.35260   Biso      1.000     H          0.115626  
         H47       1.0000    0.70300   0.60140   0.44380   Biso      1.000     H          0.099542  
         H48       1.0000    0.79760   0.56520   0.55020   Biso      1.000     H          0.113628  
         H49       1.0000    0.51030   0.39490   0.09760   Biso      1.000     H          0.129389  
         H50       1.0000    0.41770   0.29650   0.16820   Biso      1.000     H          0.110199  
         H51       1.0000    0.15550   0.32710   0.07340   Biso      1.000     H          0.104446  
         H52       1.0000    0.23930   0.43090   0.00460   Biso      1.000     H          0.142135  
         H53       1.0000    0.43030   0.55250   0.99900   Biso      1.000     H          0.098313  
         H54       1.0000    0.63650   0.55090   0.81140   Biso      1.000     H          0.131269  
         H55       1.0000    0.37010   0.33710   0.88700   Biso      1.000     H          0.093495  
         H56       1.0000    0.21630   0.58650   0.78220   Biso      1.000     H          0.093583  
         N1        1.0000    0.05489   0.52929   0.62798   Biso      1.000     N          -0.202033           
         N2        1.0000    0.18110   0.35430   0.25420   Biso      1.000     N          -0.196687           
         N3        1.0000    0.84869   0.82309   0.12798   Biso      1.000     N          -0.192788           
         N4        1.0000    0.10430   0.43110   0.75420   Biso      1.000     N          -0.201886           
         N5        1.0000    0.27929   0.30489   0.12798   Biso      1.000     N          -0.190478           
         N6        1.0000    0.07310   0.89990   0.25420   Biso      1.000     N          -0.198229           
         N7        1.0000    0.64990   0.32310   0.75420   Biso      1.000     N          -0.196893           
         N8        1.0000    0.57309   0.09869   0.62798   Biso      1.000     N          -0.185683           
         Ni1       1.0000    0.19918   0.21810   0.19506   Biso      1.000     Ni          0.817384  
         Ni2       1.0000    0.72696   0.24588   0.69506   Biso      1.000     Ni          0.811078  
         Ni3       1.0000    0.96810   0.44918   0.69506   Biso      1.000     Ni          0.814828  
         Ni4       1.0000    0.99588   0.97696   0.19506   Biso      1.000     Ni          0.816529  
         O1        1.0000    0.92910   0.99170   0.28500   Biso      1.000     O          -0.545683           
         O2        1.0000    0.02517   0.17577   0.36214   Biso      1.000     O          -0.477015           
         O3        1.0000    0.91285   0.30065   0.60090   Biso      1.000     O          -0.551627           
         O4        1.0000    0.80250   0.17010   0.63720   Biso      1.000     O          -0.528873           
         O5        1.0000    0.35590   0.29330   0.28500   Biso      1.000     O          -0.546905           
         O6        1.0000    0.33697   0.18637   0.36214   Biso      1.000     O          -0.477925           
         O7        1.0000    0.68805   0.30025   0.60090   Biso      1.000     O          -0.545965           
         O8        1.0000    0.83470   0.46710   0.63720   Biso      1.000     O          -0.54064  
         O9        1.0000    0.74170   0.17910   0.78500   Biso      1.000     O          -0.544984           
         O10       1.0000    0.92577   0.27517   0.86214   Biso      1.000     O          -0.487691           
         O11       1.0000    0.05065   0.16285   0.10090   Biso      1.000     O          -0.545786           
         O12       1.0000    0.92010   0.05250   0.13720   Biso      1.000     O          -0.527622           
         O13       1.0000    0.04330   0.60590   0.78500   Biso      1.000     O          -0.5592   
         O14       1.0000    0.93637   0.58697   0.86214   Biso      1.000     O          -0.486389           
         O15       1.0000    0.05025   0.93805   0.10090   Biso      1.000     O          -0.547427           
         O16       1.0000    0.21710   0.08470   0.13720   Biso      1.000     O          -0.528997           
         O17       1.0000    0.13410   0.13410   0.26820   Biso      1.000     O          -0.44321  
         O18       1.0000    0.88410   0.38410   0.76820   Biso      1.000     O          -0.380811 