
##########################################################################
#               Crystallographic Information Format file
#               Produced by PyCifRW module
#
#  This is a CIF file.  CIF has been adopted by the International
#  Union of Crystallography as the standard for data archiving and
#  transmission.
#
#  For information on this file format, follow the CIF links at
#  http://www.iucr.org
##########################################################################

data_image0

_cell_length_a                          14.0495
_cell_length_b                          14.0495
_cell_length_c                          18.0525
_cell_angle_alpha                       103.549
_cell_angle_beta                        103.549
_cell_angle_gamma                       113.449
_symmetry_space_group_name_H-M          'P 1'
_symmetry_int_tables_number             1
loop_
  _symmetry_equiv_pos_as_xyz
         'x, y, z' 
loop_
  _atom_site_label
  _atom_site_occupancy
  _atom_site_fract_x
  _atom_site_fract_y
  _atom_site_fract_z
  _atom_site_thermal_displace_type
  _atom_site_B_iso_or_equiv
  _atom_site_type_symbol
  _atom_site_charge
         C1        1.0000    0.22340   0.90900   0.07060   Biso      1.000     C          0.088348  
         C2        1.0000    0.39130   0.45010   0.40980   Biso      1.000     C          0.11553900000000002           
         C3        1.0000    0.29230   0.34750   0.36620   Biso      1.000     C          -0.219752           
         C4        1.0000    0.31900   0.05200   0.80020   Biso      1.000     C          -0.022736000000000003         
         C5        1.0000    0.37440   0.14900   0.78600   Biso      1.000     C          -0.109448           
         C6        1.0000    0.32220   0.16660   0.71980   Biso      1.000     C          -0.110536           
         C7        1.0000    0.21270   0.09330   0.66860   Biso      1.000     C          -0.136183           
         C8        1.0000    0.49430   0.37390   0.36360   Biso      1.000     C          0.082497  
         C9        1.0000    0.15410   0.99390   0.68320   Biso      1.000     C          -0.017243           
         C10       1.0000    0.37820   0.02960   0.87120   Biso      1.000     C          0.581504  
         C11       1.0000    0.03210   0.91170   0.62680   Biso      1.000     C          0.560628  
         C12       1.0000    0.91160   0.09720   0.57060   Biso      1.000     C          0.080134  
         C13       1.0000    0.90950   0.19070   0.61380   Biso      1.000     C          -0.21978000000000003          
         C14       1.0000    0.80890   0.17870   0.62180   Biso      1.000     C          0.138752  
         C15       1.0000    0.71510   0.07410   0.58500   Biso      1.000     C          -0.200259           
         C16       1.0000    0.20570   0.97590   0.74900   Biso      1.000     C          -0.137872           
         C17       1.0000    0.72800   0.98500   0.54260   Biso      1.000     C          0.127606  
         C18       1.0000    0.40060   0.26980   0.32260   Biso      1.000     C          -0.200436           
         C19       1.0000    0.19190   0.14390   0.26720   Biso      1.000     C          -0.097718           
         C20       1.0000    0.07390   0.01870   0.36620   Biso      1.000     C          -0.22172199999999997          
         C21       1.0000    0.48120   0.74820   0.80020   Biso      1.000     C          -0.022004           
         C22       1.0000    0.41160   0.63700   0.78600   Biso      1.000     C          -0.117154           
         C23       1.0000    0.39760   0.55320   0.71980   Biso      1.000     C          -0.10782699999999999          
         C24       1.0000    0.45590   0.57530   0.66860   Biso      1.000     C          -0.13861800000000002          
         C25       1.0000    0.52910   0.68930   0.68320   Biso      1.000     C          -0.017301           
         C26       1.0000    0.29510   0.25850   0.32040   Biso      1.000     C          0.133294  
         C27       1.0000    0.54330   0.77310   0.74900   Biso      1.000     C          -0.138016           
         C28       1.0000    0.59470   0.71510   0.62680   Biso      1.000     C          0.562284  
         C29       1.0000    0.17310   0.95430   0.11380   Biso      1.000     C          -0.216574           
         C30       1.0000    0.19310   0.06290   0.12180   Biso      1.000     C          0.13611800000000002           
         C31       1.0000    0.26090   0.11990   0.08500   Biso      1.000     C          -0.197522           
         C32       1.0000    0.30760   0.06460   0.04260   Biso      1.000     C          0.125064  
         C33       1.0000    0.14570   0.11910   0.17380   Biso      1.000     C          -0.089344           
         C34       1.0000    0.49300   0.84160   0.87120   Biso      1.000     C          0.582004  
         C35       1.0000    0.01850   0.95970   0.40980   Biso      1.000     C          0.116226  
         C36       1.0000    0.80470   0.27810   0.67380   Biso      1.000     C          -0.092165           
         C37       1.0000    0.81190   0.27530   0.82040   Biso      1.000     C          0.134044  
         C38       1.0000    0.89390   0.44190   0.76720   Biso      1.000     C          -0.097717           
         C39       1.0000    0.00850   0.54510   0.82040   Biso      1.000     C          0.13327999999999998           
         C40       1.0000    0.01980   0.65060   0.82260   Biso      1.000     C          -0.200436           
         C41       1.0000    0.12390   0.74430   0.86360   Biso      1.000     C          0.082498  
         C42       1.0000    0.20010   0.64130   0.90980   Biso      1.000     C          0.11553499999999998           
         C43       1.0000    0.09750   0.54230   0.86620   Biso      1.000     C          -0.21973600000000001          
         C44       1.0000    0.86910   0.39570   0.67380   Biso      1.000     C          -0.089344           
         C45       1.0000    0.80200   0.56900   0.30020   Biso      1.000     C          -0.022738           
         C46       1.0000    0.91660   0.57220   0.21980   Biso      1.000     C          -0.11054100000000001          
         C47       1.0000    0.84330   0.46270   0.16860   Biso      1.000     C          -0.136183           
         C48       1.0000    0.74390   0.40410   0.18320   Biso      1.000     C          -0.017244           
         C49       1.0000    0.72590   0.45570   0.24900   Biso      1.000     C          -0.137871           
         C50       1.0000    0.77960   0.62820   0.37120   Biso      1.000     C          0.581505  
         C51       1.0000    0.66170   0.28210   0.12680   Biso      1.000     C          0.560628  
         C52       1.0000    0.89900   0.62440   0.28600   Biso      1.000     C          -0.10944300000000001          
         C53       1.0000    0.87330   0.32530   0.76720   Biso      1.000     C          -0.09580599999999999          
         C54       1.0000    0.81460   0.55760   0.54260   Biso      1.000     C          0.125064  
         C55       1.0000    0.81290   0.44310   0.62180   Biso      1.000     C          0.13611800000000002           
         C56       1.0000    0.80280   0.17200   0.82260   Biso      1.000     C          -0.199486           
         C57       1.0000    0.73970   0.11930   0.86360   Biso      1.000     C          0.081424  
         C58       1.0000    0.70970   0.26850   0.90980   Biso      1.000     C          0.116222  
         C59       1.0000    0.76870   0.32390   0.86620   Biso      1.000     C          -0.221701           
         C60       1.0000    0.49820   0.73120   0.30020   Biso      1.000     C          -0.022005           
         C61       1.0000    0.38700   0.66160   0.28600   Biso      1.000     C          -0.117153           
         C62       1.0000    0.86990   0.51090   0.58500   Biso      1.000     C          -0.197522           
         C63       1.0000    0.30320   0.64760   0.21980   Biso      1.000     C          -0.10782699999999999          
         C64       1.0000    0.43930   0.77910   0.18320   Biso      1.000     C          -0.017301           
         C65       1.0000    0.52310   0.79330   0.24900   Biso      1.000     C          -0.138016           
         C66       1.0000    0.59160   0.74300   0.37120   Biso      1.000     C          0.5820029999999999  
         C67       1.0000    0.46510   0.84470   0.12680   Biso      1.000     C          0.562285  
         C68       1.0000    0.65900   0.47340   0.57060   Biso      1.000     C          0.088348  
         C69       1.0000    0.70430   0.42310   0.61380   Biso      1.000     C          -0.216574           
         C70       1.0000    0.32530   0.70590   0.16860   Biso      1.000     C          -0.13861700000000002          
         C71       1.0000    0.92200   0.05280   0.32260   Biso      1.000     C          -0.199488           
         C72       1.0000    0.86930   0.98970   0.36360   Biso      1.000     C          0.081424  
         C73       1.0000    0.07530   0.12330   0.26720   Biso      1.000     C          -0.095807           
         C74       1.0000    0.84720   0.16160   0.07060   Biso      1.000     C          0.08013300000000001           
         C75       1.0000    0.94070   0.15950   0.11380   Biso      1.000     C          -0.21978000000000003          
         C76       1.0000    0.92870   0.05890   0.12180   Biso      1.000     C          0.138752  
         C77       1.0000    0.02530   0.06190   0.32040   Biso      1.000     C          0.134062  
         C78       1.0000    0.73500   0.97800   0.04260   Biso      1.000     C          0.127606  
         C79       1.0000    0.82410   0.96510   0.08500   Biso      1.000     C          -0.200259           
         C80       1.0000    0.02810   0.05470   0.17380   Biso      1.000     C          -0.092165           
         H1        1.0000    0.17730   0.10830   0.62520   Biso      1.000     H          0.11984500000000001           
         H2        1.0000    0.36220   0.23020   0.70920   Biso      1.000     H          0.10025099999999999           
         H3        1.0000    0.44750   0.20270   0.82160   Biso      1.000     H          0.113756  
         H4        1.0000    0.22420   0.34100   0.36900   Biso      1.000     H          0.126814  
         H5        1.0000    0.38820   0.51040   0.44280   Biso      1.000     H          0.10650799999999999           
         H6        1.0000    0.56370   0.38270   0.36240   Biso      1.000     H          0.107022  
         H7        1.0000    0.53700   0.08700   0.06600   Biso      1.000     H          0.483371  
         H8        1.0000    0.20600   0.08340   0.27680   Biso      1.000     H          0.09858099999999999           
         H9        1.0000    0.15530   0.18870   0.16480   Biso      1.000     H          0.092839  
         H10       1.0000    0.35390   0.10290   0.01780   Biso      1.000     H          0.098729  
         H11       1.0000    0.27510   0.19230   0.08840   Biso      1.000     H          0.140951  
         H12       1.0000    0.12660   0.91340   0.13740   Biso      1.000     H          0.131027  
         H13       1.0000    0.20970   0.83610   0.06540   Biso      1.000     H          0.092392  
         H14       1.0000    0.40710   0.20750   0.29660   Biso      1.000     H          0.137993  
         H15       1.0000    0.59440   0.84760   0.76040   Biso      1.000     H          0.120824  
         H16       1.0000    0.34700   0.47900   0.70920   Biso      1.000     H          0.099219  
         H17       1.0000    0.16600   0.91280   0.76040   Biso      1.000     H          0.12073099999999999           
         H18       1.0000    0.14480   0.02800   0.36900   Biso      1.000     H          0.12704400000000002           
         H19       1.0000    0.05460   0.93240   0.44280   Biso      1.000     H          0.107733  
         H20       1.0000    0.79870   0.97970   0.36240   Biso      1.000     H          0.107875  
         H21       1.0000    0.88950   0.08910   0.29660   Biso      1.000     H          0.136689  
         H22       1.0000    0.07080   0.19340   0.27680   Biso      1.000     H          0.09741799999999999           
         H23       1.0000    0.00950   0.97610   0.16480   Biso      1.000     H          0.09377200000000001           
         H24       1.0000    0.66390   0.91490   0.01780   Biso      1.000     H          0.09851900000000001           
         H25       1.0000    0.81330   0.89610   0.08840   Biso      1.000     H          0.141474  
         H26       1.0000    0.01080   0.22400   0.13740   Biso      1.000     H          0.130876  
         H27       1.0000    0.85570   0.22930   0.06540   Biso      1.000     H          0.105321  
         H28       1.0000    0.52900   0.97900   0.06600   Biso      1.000     H          0.481702  
         H29       1.0000    0.44790   0.51690   0.62520   Biso      1.000     H          0.120657  
         H30       1.0000    0.37410   0.61890   0.82160   Biso      1.000     H          0.12132000000000001           
         H31       1.0000    0.97930   0.10570   0.56540   Biso      1.000     H          0.105321  
         H32       1.0000    0.97400   0.26080   0.63740   Biso      1.000     H          0.130876  
         H33       1.0000    0.66280   0.41600   0.26040   Biso      1.000     H          0.12073099999999999           
         H34       1.0000    0.85830   0.42730   0.12520   Biso      1.000     H          0.11984500000000001           
         H35       1.0000    0.98020   0.61220   0.20920   Biso      1.000     H          0.100252  
         H36       1.0000    0.95270   0.69750   0.32160   Biso      1.000     H          0.113756  
         H37       1.0000    0.09100   0.47420   0.86900   Biso      1.000     H          0.126814  
         H38       1.0000    0.26040   0.63820   0.94280   Biso      1.000     H          0.10650899999999999           
         H39       1.0000    0.13270   0.81370   0.86240   Biso      1.000     H          0.107022  
         H40       1.0000    0.95750   0.65710   0.79660   Biso      1.000     H          0.137993  
         H41       1.0000    0.83340   0.45600   0.77680   Biso      1.000     H          0.09858099999999999           
         H42       1.0000    0.72900   0.77900   0.56600   Biso      1.000     H          0.48169799999999996           
         H43       1.0000    0.85290   0.60390   0.51780   Biso      1.000     H          0.098729  
         H44       1.0000    0.94230   0.52510   0.58840   Biso      1.000     H          0.140949  
         H45       1.0000    0.66340   0.37660   0.63740   Biso      1.000     H          0.131027  
         H46       1.0000    0.93870   0.40530   0.66480   Biso      1.000     H          0.092839  
         H47       1.0000    0.83700   0.78700   0.56600   Biso      1.000     H          0.483367  
         H48       1.0000    0.64610   0.06330   0.58840   Biso      1.000     H          0.141475  
         H49       1.0000    0.66490   0.91390   0.51780   Biso      1.000     H          0.09852000000000001           
         H50       1.0000    0.72610   0.25950   0.66480   Biso      1.000     H          0.09377200000000001           
         H51       1.0000    0.58610   0.45970   0.56540   Biso      1.000     H          0.092392  
         H52       1.0000    0.83910   0.13950   0.79660   Biso      1.000     H          0.136689  
         H53       1.0000    0.72970   0.04870   0.86240   Biso      1.000     H          0.107876  
         H54       1.0000    0.94340   0.32080   0.77680   Biso      1.000     H          0.09741799999999999           
         H55       1.0000    0.77800   0.39480   0.86900   Biso      1.000     H          0.12704100000000002           
         H56       1.0000    0.36890   0.62410   0.32160   Biso      1.000     H          0.12132000000000001           
         H57       1.0000    0.22900   0.59700   0.20920   Biso      1.000     H          0.09922   
         H58       1.0000    0.26690   0.69790   0.12520   Biso      1.000     H          0.120657  
         H59       1.0000    0.59760   0.84440   0.26040   Biso      1.000     H          0.120825  
         H60       1.0000    0.68240   0.30460   0.94280   Biso      1.000     H          0.107734  
         N1        1.0000    0.82330   0.99430   0.53500   Biso      1.000     N          -0.22205100000000003          
         N2        1.0000    0.29070   0.96170   0.03500   Biso      1.000     N          -0.21860100000000002          
         N3        1.0000    0.69180   0.16800   0.90540   Biso      1.000     N          -0.198407           
         N4        1.0000    0.71170   0.54070   0.53500   Biso      1.000     N          -0.218599           
         N5        1.0000    0.21360   0.73740   0.90540   Biso      1.000     N          -0.197574           
         N6        1.0000    0.74430   0.07330   0.03500   Biso      1.000     N          -0.222054           
         N7        1.0000    0.91800   0.94180   0.40540   Biso      1.000     N          -0.19841199999999998          
         N8        1.0000    0.48740   0.46360   0.40540   Biso      1.000     N          -0.197579           
         Ni1       1.0000    0.60849   0.08909   0.97406   Biso      1.000     Ni          0.808021  
         Ni2       1.0000    0.63497   0.61557   0.47406   Biso      1.000     Ni          0.810796  
         Ni3       1.0000    0.83909   0.85849   0.47406   Biso      1.000     Ni          0.8080189999999999  
         Ni4       1.0000    0.36557   0.88497   0.97406   Biso      1.000     Ni          0.8107979999999999  
         O1        1.0000    0.68039   0.24679   0.06138   Biso      1.000     O          -0.600071           
         O2        1.0000    0.58320   0.22520   0.14460   Biso      1.000     O          -0.552638           
         O3        1.0000    0.85853   0.72613   0.41806   Biso      1.000     O          -0.567336           
         O4        1.0000    0.69006   0.57766   0.38052   Biso      1.000     O          -0.551167           
         O5        1.0000    0.38099   0.81459   0.06138   Biso      1.000     O          -0.598924           
         O6        1.0000    0.56140   0.91940   0.14460   Biso      1.000     O          -0.553653           
         O7        1.0000    0.55953   0.69193   0.41806   Biso      1.000     O          -0.571407           
         O8        1.0000    0.69046   0.80286   0.38052   Biso      1.000     O          -0.549673           
         O9        1.0000    0.99679   0.93039   0.56138   Biso      1.000     O          -0.60007  
         O10       1.0000    0.97520   0.83320   0.64460   Biso      1.000     O          -0.552639           
         O11       1.0000    0.47613   0.10853   0.91806   Biso      1.000     O          -0.567339           
         O12       1.0000    0.32766   0.94006   0.88052   Biso      1.000     O          -0.551168           
         O13       1.0000    0.56459   0.63099   0.56138   Biso      1.000     O          -0.598923           
         O14       1.0000    0.66940   0.81140   0.64460   Biso      1.000     O          -0.553655           
         O15       1.0000    0.44193   0.80953   0.91806   Biso      1.000     O          -0.5714100000000001           
         O16       1.0000    0.55286   0.94046   0.88052   Biso      1.000     O          -0.549675           
         O17       1.0000    0.52330   0.02330   0.04660   Biso      1.000     O          -0.918537           
         O18       1.0000    0.77330   0.77330   0.54660   Biso      1.000     O          -0.91853 