
##########################################################################
#               Crystallographic Information Format file
#               Produced by PyCifRW module
#
#  This is a CIF file.  CIF has been adopted by the International
#  Union of Crystallography as the standard for data archiving and
#  transmission.
#
#  For information on this file format, follow the CIF links at
#  http://www.iucr.org
##########################################################################

data_image0

_cell_length_a                          7.0236
_cell_length_b                          9.8589
_cell_length_c                          10.0665
_cell_angle_alpha                       90.8285
_cell_angle_beta                        110.418
_cell_angle_gamma                       90
_symmetry_space_group_name_H-M          'P 1'
_symmetry_int_tables_number             1
loop_
  _symmetry_equiv_pos_as_xyz
         'x, y, z' 
loop_
  _atom_site_label
  _atom_site_occupancy
  _atom_site_fract_x
  _atom_site_fract_y
  _atom_site_fract_z
  _atom_site_thermal_displace_type
  _atom_site_B_iso_or_equiv
  _atom_site_type_symbol
  _atom_site_charge
         C1        1.0000    0.96280   0.99480   0.62620   Biso      1.000     C          -0.181664           
         C2        1.0000    0.17120   0.48580   0.69400   Biso      1.000     C          -0.208718           
         C3        1.0000    0.59890   0.61840   0.56260   Biso      1.000     C          -0.082103           
         C4        1.0000    0.56420   0.37620   0.56400   Biso      1.000     C          -0.078065           
         C5        1.0000    0.66340   0.49480   0.62620   Biso      1.000     C          -0.180448           
         C6        1.0000    0.47720   0.01420   0.30600   Biso      1.000     C          -0.209267           
         C7        1.0000    0.03630   0.88160   0.43740   Biso      1.000     C          -0.082939           
         C8        1.0000    0.00020   0.12380   0.43600   Biso      1.000     C          -0.076028           
         C9        1.0000    0.03720   0.00520   0.37380   Biso      1.000     C          -0.18166  
         C10       1.0000    0.82880   0.51420   0.30600   Biso      1.000     C          -0.208718           
         C11       1.0000    0.40110   0.38160   0.43740   Biso      1.000     C          -0.0821   
         C12       1.0000    0.43580   0.62380   0.43600   Biso      1.000     C          -0.078063           
         C13       1.0000    0.33660   0.50520   0.37380   Biso      1.000     C          -0.180449           
         C14       1.0000    0.52280   0.98580   0.69400   Biso      1.000     C          -0.209266           
         C15       1.0000    0.96370   0.11840   0.56260   Biso      1.000     C          -0.082934           
         C16       1.0000    0.99980   0.87620   0.56400   Biso      1.000     C          -0.076024           
         Cu1       1.0000    0.06378   0.25000   0.00000   Biso      1.000     Cu          1.118733  
         Cu2       1.0000    0.93622   0.75000   0.00000   Biso      1.000     Cu          1.118734  
         H1        1.0000    0.06030   0.80210   0.39500   Biso      1.000     H          0.11402   
         H2        1.0000    0.00000   0.79330   0.60700   Biso      1.000     H          0.118555  
         H3        1.0000    0.00000   0.20670   0.39300   Biso      1.000     H          0.118555  
         H4        1.0000    0.50370   0.96920   0.59600   Biso      1.000     H          0.104906  
         H5        1.0000    0.40900   0.03540   0.70100   Biso      1.000     H          0.13659   
         H6        1.0000    0.53360   0.90090   0.74140   Biso      1.000     H          0.124397  
         H7        1.0000    0.39300   0.70670   0.39300   Biso      1.000     H          0.119137  
         H8        1.0000    0.33470   0.30210   0.39500   Biso      1.000     H          0.113965  
         H9        1.0000    0.90770   0.53080   0.40400   Biso      1.000     H          0.104642  
         H10       1.0000    0.70800   0.46460   0.29900   Biso      1.000     H          0.13605   
         H11       1.0000    0.93970   0.19790   0.60500   Biso      1.000     H          0.11402   
         H12       1.0000    0.49630   0.03080   0.40400   Biso      1.000     H          0.104907  
         H13       1.0000    0.20780   0.40090   0.74140   Biso      1.000     H          0.124422  
         H14       1.0000    0.29200   0.53540   0.70100   Biso      1.000     H          0.136049  
         H15       1.0000    0.09230   0.46920   0.59600   Biso      1.000     H          0.104643  
         H16       1.0000    0.66530   0.69790   0.60500   Biso      1.000     H          0.113965  
         H17       1.0000    0.60700   0.29330   0.60700   Biso      1.000     H          0.119137  
         H18       1.0000    0.46640   0.09910   0.25860   Biso      1.000     H          0.124397  
         H19       1.0000    0.59100   0.96460   0.29900   Biso      1.000     H          0.13659   
         H20       1.0000    0.79220   0.59910   0.25860   Biso      1.000     H          0.124422  
         O1        1.0000    0.83270   0.58550   0.89480   Biso      1.000     O          -0.766154           
         O2        1.0000    0.09230   0.15300   0.17100   Biso      1.000     O          -0.768548           
         O3        1.0000    0.30200   0.93970   0.24360   Biso      1.000     O          -0.332256           
         O4        1.0000    0.93790   0.91450   0.10520   Biso      1.000     O          -0.766606           
         O5        1.0000    0.07870   0.65300   0.17100   Biso      1.000     O          -0.768071           
         O6        1.0000    0.94160   0.43970   0.24360   Biso      1.000     O          -0.331872           
         O7        1.0000    0.16730   0.41450   0.10520   Biso      1.000     O          -0.766156           
         O8        1.0000    0.05840   0.56030   0.75640   Biso      1.000     O          -0.331872           
         O9        1.0000    0.69800   0.06030   0.75640   Biso      1.000     O          -0.332256           
         O10       1.0000    0.06210   0.08550   0.89480   Biso      1.000     O          -0.766608           
         O11       1.0000    0.90770   0.84700   0.82900   Biso      1.000     O          -0.768546           
         O12       1.0000    0.92130   0.34700   0.82900   Biso      1.000     O          -0.768073           
         P1        1.0000    0.91308   0.99309   0.79116   Biso      1.000     P          1.259355  
         P2        1.0000    0.12192   0.50691   0.20884   Biso      1.000     P          1.25796   
         P3        1.0000    0.08692   0.00691   0.20884   Biso      1.000     P          1.259355  
         P4        1.0000    0.87808   0.49309   0.79116   Biso      1.000     P          1.25796 