
##########################################################################
#               Crystallographic Information Format file
#               Produced by PyCifRW module
#
#  This is a CIF file.  CIF has been adopted by the International
#  Union of Crystallography as the standard for data archiving and
#  transmission.
#
#  For information on this file format, follow the CIF links at
#  http://www.iucr.org
##########################################################################

data_image0

_cell_length_a                          11.4137
_cell_length_b                          16.592
_cell_length_c                          26.041
_cell_angle_alpha                       90
_cell_angle_beta                        95.29
_cell_angle_gamma                       90
_symmetry_space_group_name_H-M          'P 1'
_symmetry_int_tables_number             1
loop_
  _symmetry_equiv_pos_as_xyz
         'x, y, z' 
loop_
  _atom_site_label
  _atom_site_occupancy
  _atom_site_fract_x
  _atom_site_fract_y
  _atom_site_fract_z
  _atom_site_thermal_displace_type
  _atom_site_B_iso_or_equiv
  _atom_site_type_symbol
  _atom_site_charge
         C1        1.0000    0.60720   0.64990   0.88000   Biso      1.000     C          -0.14857  
         C2        1.0000    0.48680   0.22060   0.79950   Biso      1.000     C          -0.144193           
         C3        1.0000    0.46670   0.16740   0.75910   Biso      1.000     C          0.102461  
         C4        1.0000    0.55440   0.22220   0.66060   Biso      1.000     C          -0.15598  
         C5        1.0000    0.60900   0.22150   0.61570   Biso      1.000     C          -0.112333           
         C6        1.0000    0.55640   0.18330   0.57200   Biso      1.000     C          -0.008623           
         C7        1.0000    0.44750   0.14710   0.57470   Biso      1.000     C          -0.08642  
         C8        1.0000    0.39280   0.14990   0.62000   Biso      1.000     C          -0.14857  
         C9        1.0000    0.44500   0.18800   0.66330   Biso      1.000     C          0.079721  
         C10       1.0000    0.15300   0.27110   0.77910   Biso      1.000     C          -0.149677           
         C11       1.0000    0.08990   0.26590   0.82190   Biso      1.000     C          -0.094272           
         C12       1.0000    0.08680   0.19420   0.84910   Biso      1.000     C          -0.031798           
         C13       1.0000    0.14590   0.12790   0.83210   Biso      1.000     C          -0.093782           
         C14       1.0000    0.56760   0.20300   0.84140   Biso      1.000     C          -0.087867           
         C15       1.0000    0.20860   0.13390   0.78940   Biso      1.000     C          -0.159212           
         C16       1.0000    0.27490   0.21210   0.71450   Biso      1.000     C          -0.057501           
         C17       1.0000    0.38750   0.18970   0.71240   Biso      1.000     C          -0.034879           
         C18       1.0000    0.47370   0.59590   0.73860   Biso      1.000     C          -0.148986           
         C19       1.0000    0.79600   0.74950   0.83040   Biso      1.000     C          0.104288  
         C20       1.0000    0.90630   0.71920   0.84790   Biso      1.000     C          -0.146297           
         C21       1.0000    0.97250   0.75570   0.88830   Biso      1.000     C          -0.095824           
         C22       1.0000    0.93170   0.82410   0.91130   Biso      1.000     C          -0.054245           
         C23       1.0000    0.82170   0.85470   0.89380   Biso      1.000     C          -0.082208           
         C24       1.0000    0.75380   0.81770   0.85340   Biso      1.000     C          -0.137686           
         C25       1.0000    0.00370   0.86550   0.95390   Biso      1.000     C          0.629219  
         C26       1.0000    0.28390   0.61130   0.61300   Biso      1.000     C          0.592783  
         C27       1.0000    0.98380   0.68670   0.60530   Biso      1.000     C          0.617614  
         C28       1.0000    0.21170   0.20550   0.76190   Biso      1.000     C          0.099337  
         C29       1.0000    0.38140   0.67960   0.97640   Biso      1.000     C          0.584423  
         C30       1.0000    0.62810   0.13160   0.84340   Biso      1.000     C          -0.034145           
         C31       1.0000    0.52630   0.09590   0.76140   Biso      1.000     C          -0.148975           
         C32       1.0000    0.51320   0.72060   0.70050   Biso      1.000     C          -0.144194           
         C33       1.0000    0.53330   0.66740   0.74090   Biso      1.000     C          0.102471  
         C34       1.0000    0.44560   0.72220   0.83940   Biso      1.000     C          -0.15598  
         C35       1.0000    0.39100   0.72150   0.88430   Biso      1.000     C          -0.112333           
         C36       1.0000    0.44360   0.68330   0.92800   Biso      1.000     C          -0.008622           
         C37       1.0000    0.55250   0.64710   0.92530   Biso      1.000     C          -0.08642  
         C38       1.0000    0.39390   0.57640   0.69720   Biso      1.000     C          -0.09913  
         C39       1.0000    0.55500   0.68800   0.83670   Biso      1.000     C          0.079722  
         C40       1.0000    0.84700   0.77110   0.72090   Biso      1.000     C          -0.149677           
         C41       1.0000    0.91010   0.76590   0.67810   Biso      1.000     C          -0.094272           
         C42       1.0000    0.91320   0.69420   0.65090   Biso      1.000     C          -0.031798           
         C43       1.0000    0.85410   0.62790   0.66790   Biso      1.000     C          -0.093782           
         C44       1.0000    0.60610   0.07640   0.80280   Biso      1.000     C          -0.099131           
         C45       1.0000    0.79140   0.63390   0.71060   Biso      1.000     C          -0.159212           
         C46       1.0000    0.72510   0.71210   0.78550   Biso      1.000     C          -0.057501           
         C47       1.0000    0.61250   0.68970   0.78760   Biso      1.000     C          -0.03488  
         C48       1.0000    0.61860   0.17960   0.52360   Biso      1.000     C          0.584424  
         C49       1.0000    0.01620   0.18670   0.89470   Biso      1.000     C          0.617614  
         C50       1.0000    0.71610   0.11130   0.88700   Biso      1.000     C          0.592783  
         C51       1.0000    0.99630   0.36550   0.54610   Biso      1.000     C          0.629219  
         C52       1.0000    0.24620   0.31770   0.64660   Biso      1.000     C          -0.137686           
         C53       1.0000    0.17830   0.35470   0.60620   Biso      1.000     C          -0.082209           
         C54       1.0000    0.06830   0.32410   0.58870   Biso      1.000     C          -0.054244           
         C55       1.0000    0.02750   0.25570   0.61170   Biso      1.000     C          -0.095827           
         C56       1.0000    0.09370   0.21920   0.65210   Biso      1.000     C          -0.146295           
         C57       1.0000    0.20400   0.24950   0.66960   Biso      1.000     C          0.104288  
         C58       1.0000    0.78830   0.70550   0.73810   Biso      1.000     C          0.099337  
         C59       1.0000    0.61250   0.81030   0.28760   Biso      1.000     C          -0.034901           
         C60       1.0000    0.72510   0.78790   0.28550   Biso      1.000     C          -0.057475           
         C61       1.0000    0.78830   0.79450   0.23810   Biso      1.000     C          0.099332  
         C62       1.0000    0.14590   0.37210   0.33210   Biso      1.000     C          -0.093784           
         C63       1.0000    0.08680   0.30580   0.34910   Biso      1.000     C          -0.031796           
         C64       1.0000    0.08990   0.23410   0.32190   Biso      1.000     C          -0.094275           
         C65       1.0000    0.15300   0.22890   0.27910   Biso      1.000     C          -0.149674           
         C66       1.0000    0.44500   0.31200   0.16330   Biso      1.000     C          0.079716  
         C67       1.0000    0.39280   0.35010   0.12000   Biso      1.000     C          -0.148566           
         C68       1.0000    0.44750   0.35290   0.07470   Biso      1.000     C          -0.086422           
         C69       1.0000    0.55640   0.31670   0.07200   Biso      1.000     C          -0.008622           
         C70       1.0000    0.60900   0.27850   0.11570   Biso      1.000     C          -0.112334           
         C71       1.0000    0.55440   0.27780   0.16060   Biso      1.000     C          -0.155976           
         C72       1.0000    0.46670   0.33260   0.25910   Biso      1.000     C          0.10246   
         C73       1.0000    0.48680   0.27940   0.29950   Biso      1.000     C          -0.144192           
         C74       1.0000    0.20860   0.36610   0.28940   Biso      1.000     C          -0.159212           
         C75       1.0000    0.56760   0.29700   0.34140   Biso      1.000     C          -0.087867           
         C76       1.0000    0.60610   0.42360   0.30280   Biso      1.000     C          -0.099132           
         C77       1.0000    0.52630   0.40410   0.26140   Biso      1.000     C          -0.148974           
         C78       1.0000    0.20400   0.25050   0.16960   Biso      1.000     C          0.104288  
         C79       1.0000    0.09370   0.28080   0.15210   Biso      1.000     C          -0.146297           
         C80       1.0000    0.02750   0.24430   0.11170   Biso      1.000     C          -0.095824           
         C81       1.0000    0.06830   0.17590   0.08870   Biso      1.000     C          -0.054245           
         C82       1.0000    0.17830   0.14530   0.10620   Biso      1.000     C          -0.082208           
         C83       1.0000    0.24620   0.18230   0.14660   Biso      1.000     C          -0.137686           
         C84       1.0000    0.99630   0.13450   0.04610   Biso      1.000     C          0.629219  
         C85       1.0000    0.71610   0.38870   0.38700   Biso      1.000     C          0.592783  
         C86       1.0000    0.01620   0.31330   0.39470   Biso      1.000     C          0.617614  
         C87       1.0000    0.61860   0.32040   0.02360   Biso      1.000     C          0.584424  
         C88       1.0000    0.62810   0.36840   0.34340   Biso      1.000     C          -0.034144           
         C89       1.0000    0.21170   0.29450   0.26190   Biso      1.000     C          0.099337  
         C90       1.0000    0.27490   0.28790   0.21450   Biso      1.000     C          -0.057501           
         C91       1.0000    0.38750   0.31030   0.21240   Biso      1.000     C          -0.034879           
         C92       1.0000    0.79140   0.86610   0.21060   Biso      1.000     C          -0.159215           
         C93       1.0000    0.85410   0.87210   0.16790   Biso      1.000     C          -0.09378  
         C94       1.0000    0.91320   0.80580   0.15090   Biso      1.000     C          -0.031796           
         C95       1.0000    0.91010   0.73410   0.17810   Biso      1.000     C          -0.094276           
         C96       1.0000    0.84700   0.72890   0.22090   Biso      1.000     C          -0.149671           
         C97       1.0000    0.55500   0.81200   0.33670   Biso      1.000     C          0.079717  
         C98       1.0000    0.60720   0.85010   0.38000   Biso      1.000     C          -0.148567           
         C99       1.0000    0.55250   0.85290   0.42530   Biso      1.000     C          -0.086422           
         C100      1.0000    0.44360   0.81670   0.42800   Biso      1.000     C          -0.008622           
         C101      1.0000    0.39100   0.77850   0.38430   Biso      1.000     C          -0.112333           
         C102      1.0000    0.44560   0.77780   0.33940   Biso      1.000     C          -0.155977           
         C103      1.0000    0.53330   0.83260   0.24090   Biso      1.000     C          0.102462  
         C104      1.0000    0.51320   0.77940   0.20050   Biso      1.000     C          -0.144192           
         C105      1.0000    0.43240   0.79700   0.15860   Biso      1.000     C          -0.087867           
         C106      1.0000    0.37190   0.86840   0.15660   Biso      1.000     C          -0.034145           
         C107      1.0000    0.39390   0.92360   0.19720   Biso      1.000     C          -0.099132           
         C108      1.0000    0.47370   0.90410   0.23860   Biso      1.000     C          -0.148974           
         C109      1.0000    0.79600   0.75050   0.33040   Biso      1.000     C          0.104286  
         C110      1.0000    0.90630   0.78080   0.34790   Biso      1.000     C          -0.146298           
         C111      1.0000    0.97250   0.74430   0.38830   Biso      1.000     C          -0.095824           
         C112      1.0000    0.93170   0.67590   0.41130   Biso      1.000     C          -0.054244           
         C113      1.0000    0.82170   0.64530   0.39380   Biso      1.000     C          -0.082208           
         C114      1.0000    0.75380   0.68230   0.35340   Biso      1.000     C          -0.137686           
         C115      1.0000    0.00370   0.63450   0.45390   Biso      1.000     C          0.629219  
         C116      1.0000    0.28390   0.88870   0.11300   Biso      1.000     C          0.592783  
         C117      1.0000    0.98380   0.81330   0.10530   Biso      1.000     C          0.617614  
         C118      1.0000    0.38140   0.82040   0.47640   Biso      1.000     C          0.584424  
         C119      1.0000    0.43240   0.70300   0.65860   Biso      1.000     C          -0.087867           
         C120      1.0000    0.37190   0.63160   0.65660   Biso      1.000     C          -0.034145           
         Cd1       1.0000    0.88591   0.05887   0.96078   Biso      1.000     Cd          1.027236  
         Cd2       1.0000    0.83183   0.26612   0.96307   Biso      1.000     Cd          1.05569   
         Cd3       1.0000    0.11409   0.55887   0.53922   Biso      1.000     Cd          1.027236  
         Cd4       1.0000    0.16817   0.76612   0.53693   Biso      1.000     Cd          1.05569   
         Cd5       1.0000    0.11409   0.94113   0.03922   Biso      1.000     Cd          1.027236  
         Cd6       1.0000    0.16817   0.73388   0.03693   Biso      1.000     Cd          1.055689  
         Cd7       1.0000    0.88591   0.44113   0.46078   Biso      1.000     Cd          1.027236  
         Cd8       1.0000    0.83183   0.23388   0.46307   Biso      1.000     Cd          1.05569   
         H1        1.0000    0.32120   0.16100   0.15830   Biso      1.000     H          0.122142  
         H2        1.0000    0.74960   0.58830   0.72140   Biso      1.000     H          0.124042  
         H3        1.0000    0.85680   0.57810   0.65010   Biso      1.000     H          0.120197  
         H4        1.0000    0.95160   0.81160   0.66740   Biso      1.000     H          0.117849  
         H5        1.0000    0.84430   0.82090   0.73880   Biso      1.000     H          0.115254  
         H6        1.0000    0.68200   0.62510   0.87870   Biso      1.000     H          0.108878  
         H7        1.0000    0.55510   0.77010   0.70120   Biso      1.000     H          0.117413  
         H8        1.0000    0.31700   0.74730   0.88550   Biso      1.000     H          0.116904  
         H9        1.0000    0.40700   0.74680   0.80950   Biso      1.000     H          0.110466  
         H10       1.0000    0.32120   0.33900   0.65830   Biso      1.000     H          0.122142  
         H11       1.0000    0.41910   0.74070   0.63120   Biso      1.000     H          0.117934  
         H12       1.0000    0.58970   0.62030   0.95470   Biso      1.000     H          0.125777  
         H13       1.0000    0.20720   0.40130   0.59040   Biso      1.000     H          0.106419  
         H14       1.0000    0.58090   0.24070   0.86880   Biso      1.000     H          0.117934  
         H15       1.0000    0.51270   0.05860   0.73380   Biso      1.000     H          0.117477  
         H16       1.0000    0.64570   0.02600   0.80380   Biso      1.000     H          0.119399  
         H17       1.0000    0.35430   0.52600   0.69620   Biso      1.000     H          0.119399  
         H18       1.0000    0.44490   0.27010   0.79880   Biso      1.000     H          0.117413  
         H19       1.0000    0.59300   0.24680   0.69050   Biso      1.000     H          0.110466  
         H20       1.0000    0.68300   0.24730   0.61450   Biso      1.000     H          0.116904  
         H21       1.0000    0.41030   0.12030   0.54530   Biso      1.000     H          0.125777  
         H22       1.0000    0.31800   0.12510   0.62130   Biso      1.000     H          0.108878  
         H23       1.0000    0.15570   0.32090   0.76120   Biso      1.000     H          0.115254  
         H24       1.0000    0.04840   0.31160   0.83260   Biso      1.000     H          0.117849  
         H25       1.0000    0.14320   0.07810   0.84990   Biso      1.000     H          0.120197  
         H26       1.0000    0.25040   0.08830   0.77860   Biso      1.000     H          0.124042  
         H27       1.0000    0.95320   0.23380   0.59950   Biso      1.000     H          0.11867   
         H28       1.0000    0.48730   0.55860   0.76620   Biso      1.000     H          0.117478  
         H29       1.0000    0.06400   0.17300   0.66810   Biso      1.000     H          0.121308  
         H30       1.0000    0.04680   0.73380   0.90050   Biso      1.000     H          0.11867   
         H31       1.0000    0.25040   0.41170   0.27860   Biso      1.000     H          0.124042  
         H32       1.0000    0.14320   0.42190   0.34990   Biso      1.000     H          0.120197  
         H33       1.0000    0.04840   0.18840   0.33260   Biso      1.000     H          0.117849  
         H34       1.0000    0.15570   0.17910   0.26120   Biso      1.000     H          0.115254  
         H35       1.0000    0.31800   0.37490   0.12130   Biso      1.000     H          0.108877  
         H36       1.0000    0.41030   0.37970   0.04530   Biso      1.000     H          0.125777  
         H37       1.0000    0.68300   0.25270   0.11450   Biso      1.000     H          0.116904  
         H38       1.0000    0.59300   0.25320   0.19050   Biso      1.000     H          0.110466  
         H39       1.0000    0.44490   0.22990   0.29880   Biso      1.000     H          0.117413  
         H40       1.0000    0.58090   0.25930   0.36880   Biso      1.000     H          0.117934  
         H41       1.0000    0.64570   0.47400   0.30380   Biso      1.000     H          0.119399  
         H42       1.0000    0.51270   0.44140   0.23380   Biso      1.000     H          0.117477  
         H43       1.0000    0.06400   0.32700   0.16810   Biso      1.000     H          0.121308  
         H44       1.0000    0.93600   0.67300   0.83190   Biso      1.000     H          0.121308  
         H45       1.0000    0.20720   0.09870   0.09040   Biso      1.000     H          0.106418  
         H46       1.0000    0.67880   0.66100   0.34170   Biso      1.000     H          0.122142  
         H47       1.0000    0.79280   0.59870   0.40960   Biso      1.000     H          0.106418  
         H48       1.0000    0.95320   0.26620   0.09950   Biso      1.000     H          0.11867   
         H49       1.0000    0.93600   0.82700   0.33190   Biso      1.000     H          0.121308  
         H50       1.0000    0.04680   0.76620   0.40050   Biso      1.000     H          0.11867   
         H51       1.0000    0.67880   0.83900   0.84170   Biso      1.000     H          0.122142  
         H52       1.0000    0.74960   0.91170   0.22140   Biso      1.000     H          0.124042  
         H53       1.0000    0.85680   0.92190   0.15010   Biso      1.000     H          0.120196  
         H54       1.0000    0.95160   0.68840   0.16740   Biso      1.000     H          0.117849  
         H55       1.0000    0.84430   0.67910   0.23880   Biso      1.000     H          0.115253  
         H56       1.0000    0.68200   0.87490   0.37870   Biso      1.000     H          0.108877  
         H57       1.0000    0.79280   0.90130   0.90960   Biso      1.000     H          0.106418  
         H58       1.0000    0.31700   0.75270   0.38550   Biso      1.000     H          0.116904  
         H59       1.0000    0.40700   0.75320   0.30950   Biso      1.000     H          0.110466  
         H60       1.0000    0.55510   0.72990   0.20120   Biso      1.000     H          0.117413  
         H61       1.0000    0.41910   0.75930   0.13120   Biso      1.000     H          0.117934  
         H62       1.0000    0.35430   0.97400   0.19620   Biso      1.000     H          0.119399  
         H63       1.0000    0.48730   0.94140   0.26620   Biso      1.000     H          0.117477  
         H64       1.0000    0.58970   0.87970   0.45470   Biso      1.000     H          0.125777  
         O1        1.0000    0.22420   0.95190   0.11599   Biso      1.000     O          -0.532403           
         O2        1.0000    0.97840   0.87810   0.08122   Biso      1.000     O          -0.56546  
         O3        1.0000    0.04460   0.75150   0.09542   Biso      1.000     O          -0.588434           
         O4        1.0000    0.28930   0.78080   0.47662   Biso      1.000     O          -0.570677           
         O5        1.0000    0.42600   0.86280   0.51250   Biso      1.000     O          -0.585659           
         O6        1.0000    0.57400   0.36280   0.98750   Biso      1.000     O          -0.585659           
         O7        1.0000    0.77580   0.45190   0.38401   Biso      1.000     O          -0.532403           
         O8        1.0000    0.08820   0.67050   0.47771   Biso      1.000     O          -0.583752           
         O9        1.0000    0.72790   0.34210   0.42542   Biso      1.000     O          -0.612689           
         O10       1.0000    0.02160   0.37810   0.41878   Biso      1.000     O          -0.56546  
         O11       1.0000    0.95540   0.25150   0.40458   Biso      1.000     O          -0.588434           
         O12       1.0000    0.71070   0.28080   0.02338   Biso      1.000     O          -0.570677           
         O13       1.0000    0.27210   0.84210   0.07458   Biso      1.000     O          -0.612689           
         O14       1.0000    0.98020   0.56350   0.46502   Biso      1.000     O          -0.570205           
         O15       1.0000    0.08820   0.82950   0.97771   Biso      1.000     O          -0.583752           
         O16       1.0000    0.91180   0.32950   0.52229   Biso      1.000     O          -0.583752           
         O17       1.0000    0.42600   0.63720   0.01250   Biso      1.000     O          -0.585659           
         O18       1.0000    0.28930   0.71920   0.97662   Biso      1.000     O          -0.570677           
         O19       1.0000    0.04460   0.74850   0.59542   Biso      1.000     O          -0.588435           
         O20       1.0000    0.97840   0.62190   0.58122   Biso      1.000     O          -0.56546  
         O21       1.0000    0.22420   0.54810   0.61599   Biso      1.000     O          -0.532403           
         O22       1.0000    0.27210   0.65790   0.57458   Biso      1.000     O          -0.612689           
         O23       1.0000    0.01980   0.43650   0.53498   Biso      1.000     O          -0.570206           
         O24       1.0000    0.57400   0.13720   0.48750   Biso      1.000     O          -0.585659           
         O25       1.0000    0.71070   0.21920   0.52338   Biso      1.000     O          -0.570677           
         O26       1.0000    0.95540   0.24850   0.90458   Biso      1.000     O          -0.588435           
         O27       1.0000    0.02160   0.12190   0.91878   Biso      1.000     O          -0.56546  
         O28       1.0000    0.77580   0.04810   0.88401   Biso      1.000     O          -0.532403           
         O29       1.0000    0.72790   0.15790   0.92542   Biso      1.000     O          -0.612689           
         O30       1.0000    0.01980   0.06350   0.03498   Biso      1.000     O          -0.570205           
         O31       1.0000    0.98020   0.93650   0.96502   Biso      1.000     O          -0.570205           
         O32       1.0000    0.91180   0.17050   0.02229   Biso      1.000     O          -0.583752 