
##########################################################################
#               Crystallographic Information Format file
#               Produced by PyCifRW module
#
#  This is a CIF file.  CIF has been adopted by the International
#  Union of Crystallography as the standard for data archiving and
#  transmission.
#
#  For information on this file format, follow the CIF links at
#  http://www.iucr.org
##########################################################################

data_image0

_cell_length_a                          15.9919
_cell_length_b                          16.3613
_cell_length_c                          16.3613
_cell_angle_alpha                       76.1819
_cell_angle_beta                        60.744
_cell_angle_gamma                       60.744
_symmetry_space_group_name_H-M          'P 1'
_symmetry_int_tables_number             1
loop_
  _symmetry_equiv_pos_as_xyz
         'x, y, z' 
loop_
  _atom_site_label
  _atom_site_occupancy
  _atom_site_fract_x
  _atom_site_fract_y
  _atom_site_fract_z
  _atom_site_thermal_displace_type
  _atom_site_B_iso_or_equiv
  _atom_site_type_symbol
  _atom_site_charge
         C1        1.0000    0.07550   0.32830   0.63250   Biso      1.000     C          -0.036164           
         C2        1.0000    0.81200   0.74010   0.08430   Biso      1.000     C          0.234739  
         C3        1.0000    0.56420   0.82000   0.05260   Biso      1.000     C          0.647112  
         C4        1.0000    0.36960   0.98410   0.22450   Biso      1.000     C          0.667773  
         C5        1.0000    0.38720   0.89360   0.20340   Biso      1.000     C          -0.004967           
         C6        1.0000    0.46370   0.82830   0.13250   Biso      1.000     C          -0.037552           
         C7        1.0000    0.34410   0.78220   0.22580   Biso      1.000     C          0.217311  
         C8        1.0000    0.91580   0.95430   0.43190   Biso      1.000     C          0.625856  
         C9        1.0000    0.87730   0.83680   0.05660   Biso      1.000     C          0.003245  
         C10       1.0000    0.09970   0.96830   0.20590   Biso      1.000     C          0.652152  
         C11       1.0000    0.93390   0.94340   0.33680   Biso      1.000     C          0.003596  
         C12       1.0000    0.89630   0.91570   0.24010   Biso      1.000     C          0.234368  
         C13       1.0000    0.61680   0.94740   0.32000   Biso      1.000     C          0.647541  
         C14       1.0000    0.59410   0.77550   0.48410   Biso      1.000     C          0.668375  
         C15       1.0000    0.59060   0.79660   0.39360   Biso      1.000     C          -0.00634  
         C16       1.0000    0.59620   0.86750   0.32830   Biso      1.000     C          -0.036008           
         C17       1.0000    0.56990   0.77420   0.28220   Biso      1.000     C          0.217472  
         C18       1.0000    0.00400   0.95210   0.24590   Biso      1.000     C          0.015542  
         C19       1.0000    0.80200   0.54570   0.06810   Biso      1.000     C          0.628078  
         C20       1.0000    0.95610   0.74590   0.04790   Biso      1.000     C          0.017042  
         C21       1.0000    0.87010   0.93190   0.04570   Biso      1.000     C          0.629092  
         C22       1.0000    0.44790   0.41570   0.74010   Biso      1.000     C          0.236387  
         C23       1.0000    0.61580   0.44740   0.82000   Biso      1.000     C          0.646285  
         C24       1.0000    0.64630   0.27550   0.98410   Biso      1.000     C          0.670152  
         C25       1.0000    0.71920   0.29660   0.89360   Biso      1.000     C          -0.006231           
         C26       1.0000    0.70800   0.36750   0.82830   Biso      1.000     C          -0.035025           
         C27       1.0000    0.87370   0.27420   0.78220   Biso      1.000     C          0.214551  
         C28       1.0000    0.34770   0.56810   0.45430   Biso      1.000     C          0.626134  
         C29       1.0000    0.06800   0.70590   0.03170   Biso      1.000     C          0.653265  
         C30       1.0000    0.30560   0.79410   0.46830   Biso      1.000     C          0.652964  
         C31       1.0000    0.27070   0.66320   0.44340   Biso      1.000     C          0.003671  
         C32       1.0000    0.13640   0.75990   0.41570   Biso      1.000     C          0.236993  
         C33       1.0000    0.93680   0.68000   0.44740   Biso      1.000     C          0.646806  
         C34       1.0000    0.07820   0.51590   0.27550   Biso      1.000     C          0.67004   
         C35       1.0000    0.98420   0.60640   0.29660   Biso      1.000     C          -0.006088           
         C36       1.0000    0.92450   0.67170   0.36750   Biso      1.000     C          -0.036163           
         C37       1.0000    0.85210   0.71780   0.27420   Biso      1.000     C          0.215632  
         C38       1.0000    0.24990   0.75410   0.45210   Biso      1.000     C          0.016952  
         C39       1.0000    0.77390   0.53170   0.29410   Biso      1.000     C          0.651629  
         C40       1.0000    0.70200   0.54790   0.25410   Biso      1.000     C          0.014457  
         C41       1.0000    0.71410   0.55660   0.16320   Biso      1.000     C          0.00409   
         C42       1.0000    0.63040   0.01590   0.77550   Biso      1.000     C          0.667773  
         C43       1.0000    0.43580   0.18000   0.94740   Biso      1.000     C          0.647112  
         C44       1.0000    0.18800   0.25990   0.91570   Biso      1.000     C          0.234739  
         C45       1.0000    0.12270   0.16320   0.94340   Biso      1.000     C          0.003245  
         C46       1.0000    0.04390   0.25410   0.95210   Biso      1.000     C          0.017042  
         C47       1.0000    0.93200   0.29410   0.96830   Biso      1.000     C          0.653265  
         C48       1.0000    0.12990   0.06810   0.95430   Biso      1.000     C          0.629092  
         C49       1.0000    0.61280   0.10640   0.79660   Biso      1.000     C          -0.004967           
         C50       1.0000    0.14790   0.28220   0.72580   Biso      1.000     C          0.215632  
         C51       1.0000    0.92180   0.48410   0.72450   Biso      1.000     C          0.67004   
         C52       1.0000    0.06320   0.32000   0.55260   Biso      1.000     C          0.646806  
         C53       1.0000    0.86360   0.24010   0.58430   Biso      1.000     C          0.236993  
         C54       1.0000    0.72930   0.33680   0.55660   Biso      1.000     C          0.003671  
         C55       1.0000    0.75010   0.24590   0.54790   Biso      1.000     C          0.016952  
         C56       1.0000    0.69440   0.20590   0.53170   Biso      1.000     C          0.652964  
         C57       1.0000    0.65230   0.43190   0.54570   Biso      1.000     C          0.626134  
         C58       1.0000    0.01580   0.39360   0.70340   Biso      1.000     C          -0.006088           
         C59       1.0000    0.53630   0.17170   0.86750   Biso      1.000     C          -0.037552           
         C60       1.0000    0.65590   0.21780   0.77420   Biso      1.000     C          0.21731   
         C61       1.0000    0.08420   0.04570   0.56810   Biso      1.000     C          0.625856  
         C62       1.0000    0.55210   0.58430   0.25990   Biso      1.000     C          0.236387  
         C63       1.0000    0.38420   0.55260   0.18000   Biso      1.000     C          0.646285  
         C64       1.0000    0.35370   0.72450   0.01590   Biso      1.000     C          0.670152  
         C65       1.0000    0.28080   0.70340   0.10640   Biso      1.000     C          -0.006231           
         C66       1.0000    0.29200   0.63250   0.17170   Biso      1.000     C          -0.035025           
         C67       1.0000    0.12630   0.72580   0.21780   Biso      1.000     C          0.214551  
         C68       1.0000    0.22610   0.46830   0.70590   Biso      1.000     C          0.651629  
         C69       1.0000    0.19800   0.45430   0.93190   Biso      1.000     C          0.628078  
         C70       1.0000    0.43010   0.22580   0.71780   Biso      1.000     C          0.217472  
         C71       1.0000    0.40380   0.13250   0.67170   Biso      1.000     C          -0.036009           
         C72       1.0000    0.40940   0.20340   0.60640   Biso      1.000     C          -0.00634  
         C73       1.0000    0.40590   0.22450   0.51590   Biso      1.000     C          0.668375  
         C74       1.0000    0.38320   0.05260   0.68000   Biso      1.000     C          0.647542  
         C75       1.0000    0.10370   0.08430   0.75990   Biso      1.000     C          0.234368  
         C76       1.0000    0.06610   0.05660   0.66320   Biso      1.000     C          0.003596  
         C77       1.0000    0.99600   0.04790   0.75410   Biso      1.000     C          0.015542  
         C78       1.0000    0.90030   0.03170   0.79410   Biso      1.000     C          0.652152  
         C79       1.0000    0.28590   0.44340   0.83680   Biso      1.000     C          0.004089  
         C80       1.0000    0.29800   0.45210   0.74590   Biso      1.000     C          0.014457  
         Dy1       1.0000    0.58236   0.62015   0.03358   Biso      1.000     Dy          2.017351  
         Dy2       1.0000    0.41764   0.37985   0.96642   Biso      1.000     Dy          2.017351  
         Dy3       1.0000    0.12480   0.88703   0.02495   Biso      1.000     Dy          2.00896   
         Dy4       1.0000    0.73609   0.87985   0.46642   Biso      1.000     Dy          2.017645  
         Dy5       1.0000    0.53678   0.61297   0.47505   Biso      1.000     Dy          2.009124  
         Dy6       1.0000    0.61594   0.96642   0.12015   Biso      1.000     Dy          2.016821  
         Dy7       1.0000    0.14975   0.97505   0.38703   Biso      1.000     Dy          2.008119  
         Dy8       1.0000    0.20251   0.53358   0.37985   Biso      1.000     Dy          2.019302  
         Dy9       1.0000    0.01183   0.52495   0.11297   Biso      1.000     Dy          2.00946   
         Dy10      1.0000    0.87520   0.11297   0.97505   Biso      1.000     Dy          2.00896   
         Dy11      1.0000    0.26391   0.12015   0.53358   Biso      1.000     Dy          2.017646  
         Dy12      1.0000    0.46322   0.38703   0.52495   Biso      1.000     Dy          2.009124  
         Dy13      1.0000    0.38406   0.03358   0.87985   Biso      1.000     Dy          2.016822  
         Dy14      1.0000    0.85025   0.02495   0.61297   Biso      1.000     Dy          2.008119  
         Dy15      1.0000    0.79749   0.46642   0.62015   Biso      1.000     Dy          2.019302  
         Dy16      1.0000    0.98817   0.47505   0.88703   Biso      1.000     Dy          2.00946   
         H1        1.0000    0.92130   0.21650   0.59810   Biso      1.000     H          0.079482  
         H2        1.0000    0.19470   0.24640   0.75260   Biso      1.000     H          0.074177  
         H3        1.0000    0.48060   0.59810   0.28350   Biso      1.000     H          0.077568  
         H4        1.0000    0.05270   0.75260   0.25360   Biso      1.000     H          0.075771  
         H5        1.0000    0.23590   0.28350   0.90190   Biso      1.000     H          0.079171  
         H6        1.0000    0.69370   0.25360   0.74740   Biso      1.000     H          0.073742  
         H7        1.0000    0.13780   0.09810   0.78350   Biso      1.000     H          0.078669  
         H8        1.0000    0.51940   0.40190   0.71650   Biso      1.000     H          0.077568  
         H9        1.0000    0.94730   0.24740   0.74640   Biso      1.000     H          0.075771  
         H10       1.0000    0.44110   0.25260   0.75360   Biso      1.000     H          0.073412  
         H11       1.0000    0.80530   0.75360   0.24740   Biso      1.000     H          0.074177  
         H12       1.0000    0.76410   0.71650   0.09810   Biso      1.000     H          0.079171  
         H13       1.0000    0.30630   0.74640   0.25260   Biso      1.000     H          0.073742  
         H14       1.0000    0.86220   0.90190   0.21650   Biso      1.000     H          0.078669  
         H15       1.0000    0.55890   0.74740   0.24640   Biso      1.000     H          0.073412  
         H16       1.0000    0.07870   0.78350   0.40190   Biso      1.000     H          0.079482  
         N1        1.0000    0.38420   0.41910   0.83190   Biso      1.000     N          -0.49424  
         N2        1.0000    0.01970   0.06670   0.81510   Biso      1.000     N          -0.455885           
         N3        1.0000    0.40150   0.43330   0.68490   Biso      1.000     N          -0.456072           
         N4        1.0000    0.42610   0.26290   0.63710   Biso      1.000     N          -0.429693           
         N5        1.0000    0.41740   0.14660   0.74340   Biso      1.000     N          -0.465256           
         N6        1.0000    0.13520   0.08090   0.66810   Biso      1.000     N          -0.493406           
         N7        1.0000    0.68900   0.13710   0.73710   Biso      1.000     N          -0.429313           
         N8        1.0000    0.83480   0.18490   0.56670   Biso      1.000     N          -0.459115           
         N9        1.0000    0.21610   0.16810   0.91910   Biso      1.000     N          -0.49324  
         N10       1.0000    0.08640   0.31510   0.93330   Biso      1.000     N          -0.457449           
         N11       1.0000    0.06320   0.36290   0.76290   Biso      1.000     N          -0.42978  
         N12       1.0000    0.16080   0.25660   0.64660   Biso      1.000     N          -0.464219           
         N13       1.0000    0.80330   0.33190   0.58090   Biso      1.000     N          -0.494675           
         N14       1.0000    0.80740   0.35340   0.75660   Biso      1.000     N          -0.46568  
         N15       1.0000    0.56400   0.24340   0.85340   Biso      1.000     N          -0.464419           
         N16       1.0000    0.82610   0.23710   0.86290   Biso      1.000     N          -0.429273           
         N17       1.0000    0.16520   0.81510   0.43330   Biso      1.000     N          -0.459115           
         N18       1.0000    0.19670   0.66810   0.41910   Biso      1.000     N          -0.494675           
         N19       1.0000    0.19260   0.64660   0.24340   Biso      1.000     N          -0.46568  
         N20       1.0000    0.61580   0.58090   0.16810   Biso      1.000     N          -0.49424  
         N21       1.0000    0.59850   0.56670   0.31510   Biso      1.000     N          -0.456072           
         N22       1.0000    0.57390   0.73710   0.36290   Biso      1.000     N          -0.429693           
         N23       1.0000    0.58260   0.85340   0.25660   Biso      1.000     N          -0.465256           
         N24       1.0000    0.86480   0.91910   0.33190   Biso      1.000     N          -0.493406           
         N25       1.0000    0.17390   0.76290   0.13710   Biso      1.000     N          -0.429273           
         N26       1.0000    0.31100   0.86290   0.26290   Biso      1.000     N          -0.429313           
         N27       1.0000    0.43600   0.75660   0.14660   Biso      1.000     N          -0.464419           
         N28       1.0000    0.78390   0.83190   0.08090   Biso      1.000     N          -0.49324  
         N29       1.0000    0.91360   0.68490   0.06670   Biso      1.000     N          -0.457449           
         N30       1.0000    0.93680   0.63710   0.23710   Biso      1.000     N          -0.42978  
         N31       1.0000    0.83920   0.74340   0.35340   Biso      1.000     N          -0.464219           
         N32       1.0000    0.98030   0.93330   0.18490   Biso      1.000     N          -0.455885           
         O1        1.0000    0.84563   0.04340   0.88194   Biso      1.000     O          -0.629827           
         O2        1.0000    0.40020   0.99210   0.74250   Biso      1.000     O          -0.646757           
         O3        1.0000    0.35000   0.04460   0.62860   Biso      1.000     O          -0.668162           
         O4        1.0000    0.38476   0.17912   0.48276   Biso      1.000     O          -0.688744           
         O5        1.0000    0.42527   0.29396   0.47110   Biso      1.000     O          -0.651346           
         O6        1.0000    0.22149   0.43194   0.99948   Biso      1.000     O          -0.663931           
         O7        1.0000    0.27097   0.45660   0.61806   Biso      1.000     O          -0.629228           
         O8        1.0000    0.12828   0.49412   0.75652   Biso      1.000     O          -0.669087           
         O9        1.0000    0.63480   0.50790   0.75750   Biso      1.000     O          -0.646836           
         O10       1.0000    0.52320   0.45540   0.87140   Biso      1.000     O          -0.667324           
         O11       1.0000    0.54664   0.32088   0.01724   Biso      1.000     O          -0.689532           
         O12       1.0000    0.87892   0.00588   0.74348   Biso      1.000     O          -0.669284           
         O13       1.0000    0.10114   0.48671   0.94581   Biso      1.000     O          -0.741226           
         O14       1.0000    0.03366   0.01329   0.55419   Biso      1.000     O          -0.739852           
         O15       1.0000    0.04695   0.05419   0.98671   Biso      1.000     O          -0.742517           
         O16       1.0000    0.71923   0.97110   0.70604   Biso      1.000     O          -0.650862           
         O17       1.0000    0.56388   0.98276   0.82088   Biso      1.000     O          -0.689305           
         O18       1.0000    0.39460   0.12860   0.95540   Biso      1.000     O          -0.668215           
         O19       1.0000    0.39230   0.24250   0.00790   Biso      1.000     O          -0.64605  
         O20       1.0000    0.88903   0.38194   0.95660   Biso      1.000     O          -0.629709           
         O21       1.0000    0.88480   0.24348   0.99412   Biso      1.000     O          -0.671572           
         O22       1.0000    0.69033   0.20604   0.02890   Biso      1.000     O          -0.652227           
         O23       1.0000    0.22097   0.00052   0.93194   Biso      1.000     O          -0.663566           
         O24       1.0000    0.89637   0.52890   0.79396   Biso      1.000     O          -0.651857           
         O25       1.0000    0.86752   0.51724   0.67912   Biso      1.000     O          -0.690845           
         O26       1.0000    0.97860   0.37140   0.54460   Biso      1.000     O          -0.668773           
         O27       1.0000    0.14270   0.25750   0.49210   Biso      1.000     O          -0.645443           
         O28       1.0000    0.72757   0.11806   0.54340   Biso      1.000     O          -0.630021           
         O29       1.0000    0.62240   0.25652   0.50588   Biso      1.000     O          -0.670729           
         O30       1.0000    0.15291   0.06806   0.50052   Biso      1.000     O          -0.661921           
         O31       1.0000    0.34657   0.50052   0.43194   Biso      1.000     O          -0.662904           
         O32       1.0000    0.30967   0.79396   0.97110   Biso      1.000     O          -0.652227           
         O33       1.0000    0.37760   0.74348   0.49412   Biso      1.000     O          -0.670729           
         O34       1.0000    0.58785   0.44581   0.51329   Biso      1.000     O          -0.740336           
         O35       1.0000    0.45336   0.67912   0.98276   Biso      1.000     O          -0.689532           
         O36       1.0000    0.47680   0.54460   0.12860   Biso      1.000     O          -0.667324           
         O37       1.0000    0.36520   0.49210   0.24250   Biso      1.000     O          -0.646836           
         O38       1.0000    0.72903   0.54340   0.38194   Biso      1.000     O          -0.629228           
         O39       1.0000    0.87172   0.50588   0.24348   Biso      1.000     O          -0.669087           
         O40       1.0000    0.89886   0.51329   0.05419   Biso      1.000     O          -0.741226           
         O41       1.0000    0.77851   0.56806   0.00052   Biso      1.000     O          -0.663931           
         O42       1.0000    0.57473   0.70604   0.52890   Biso      1.000     O          -0.651346           
         O43       1.0000    0.61524   0.82088   0.51724   Biso      1.000     O          -0.688744           
         O44       1.0000    0.65000   0.95540   0.37140   Biso      1.000     O          -0.668162           
         O45       1.0000    0.59980   0.00790   0.25750   Biso      1.000     O          -0.646757           
         O46       1.0000    0.15437   0.95660   0.11806   Biso      1.000     O          -0.629827           
         O47       1.0000    0.12108   0.99412   0.25652   Biso      1.000     O          -0.669284           
         O48       1.0000    0.96634   0.98671   0.44581   Biso      1.000     O          -0.739852           
         O49       1.0000    0.84709   0.93194   0.49948   Biso      1.000     O          -0.661921           
         O50       1.0000    0.28077   0.02890   0.29396   Biso      1.000     O          -0.650862           
         O51       1.0000    0.43612   0.01724   0.17912   Biso      1.000     O          -0.689305           
         O52       1.0000    0.60540   0.87140   0.04460   Biso      1.000     O          -0.668215           
         O53       1.0000    0.60770   0.75750   0.99210   Biso      1.000     O          -0.64605  
         O54       1.0000    0.11097   0.61806   0.04340   Biso      1.000     O          -0.629709           
         O55       1.0000    0.11520   0.75652   0.00588   Biso      1.000     O          -0.671572           
         O56       1.0000    0.95305   0.94581   0.01329   Biso      1.000     O          -0.742517           
         O57       1.0000    0.77903   0.99948   0.06806   Biso      1.000     O          -0.663566           
         O58       1.0000    0.10363   0.47110   0.20604   Biso      1.000     O          -0.651857           
         O59       1.0000    0.13248   0.48276   0.32088   Biso      1.000     O          -0.690845           
         O60       1.0000    0.02140   0.62860   0.45540   Biso      1.000     O          -0.668773           
         O61       1.0000    0.85730   0.74250   0.50790   Biso      1.000     O          -0.645443           
         O62       1.0000    0.27243   0.88194   0.45660   Biso      1.000     O          -0.630021           
         O63       1.0000    0.41215   0.55419   0.48671   Biso      1.000     O          -0.740336           
         O64       1.0000    0.65343   0.49948   0.56806   Biso      1.000     O          -0.662904 