
##########################################################################
#               Crystallographic Information Format file
#               Produced by PyCifRW module
#
#  This is a CIF file.  CIF has been adopted by the International
#  Union of Crystallography as the standard for data archiving and
#  transmission.
#
#  For information on this file format, follow the CIF links at
#  http://www.iucr.org
##########################################################################

data_image0

_cell_length_a                          11.2845
_cell_length_b                          11.2845
_cell_length_c                          19.885
_cell_angle_alpha                       85.3266
_cell_angle_beta                        85.3266
_cell_angle_gamma                       66.1578
_symmetry_space_group_name_H-M          'P 1'
_symmetry_int_tables_number             1
loop_
  _symmetry_equiv_pos_as_xyz
         'x, y, z' 
loop_
  _atom_site_label
  _atom_site_occupancy
  _atom_site_fract_x
  _atom_site_fract_y
  _atom_site_fract_z
  _atom_site_thermal_displace_type
  _atom_site_B_iso_or_equiv
  _atom_site_type_symbol
  _atom_site_charge
         C1        1.0000    0.19500   0.58740   0.52640   Biso      1.000     C          -0.189957           
         C2        1.0000    0.87970   0.27210   0.80860   Biso      1.000     C          -0.087535           
         C3        1.0000    0.95920   0.13840   0.91540   Biso      1.000     C          0.577476  
         C4        1.0000    0.70190   0.66770   0.72820   Biso      1.000     C          0.276011  
         C5        1.0000    0.70020   0.73040   0.66540   Biso      1.000     C          -0.22692  
         C6        1.0000    0.58390   0.79490   0.63540   Biso      1.000     C          -0.085921           
         C7        1.0000    0.46820   0.79980   0.66810   Biso      1.000     C          -0.037537           
         C8        1.0000    0.47270   0.73730   0.73110   Biso      1.000     C          -0.085287           
         C9        1.0000    0.84520   0.38720   0.76960   Biso      1.000     C          -0.225995           
         C10       1.0000    0.59050   0.66970   0.76100   Biso      1.000     C          -0.237178           
         C11       1.0000    0.74600   0.07960   0.12800   Biso      1.000     C          0.105079  
         C12       1.0000    0.62500   0.07460   0.13120   Biso      1.000     C          -0.188408           
         C13       1.0000    0.54190   0.13470   0.07900   Biso      1.000     C          0.099373  
         C14       1.0000    0.58740   0.19500   0.02640   Biso      1.000     C          -0.189954           
         C15       1.0000    0.71050   0.19410   0.02670   Biso      1.000     C          0.109315  
         C16       1.0000    0.40930   0.13510   0.07980   Biso      1.000     C          0.106399  
         C17       1.0000    0.34220   0.16900   0.02230   Biso      1.000     C          -0.196404           
         C18       1.0000    0.34300   0.87100   0.63470   Biso      1.000     C          0.543944  
         C19       1.0000    0.84660   0.49540   0.79620   Biso      1.000     C          0.268145  
         C20       1.0000    0.88070   0.49070   0.86120   Biso      1.000     C          -0.209292           
         C21       1.0000    0.91610   0.37490   0.89980   Biso      1.000     C          -0.079186           
         C22       1.0000    0.33230   0.29810   0.77180   Biso      1.000     C          0.276011  
         C23       1.0000    0.26960   0.29980   0.83460   Biso      1.000     C          -0.22692  
         C24       1.0000    0.20510   0.41610   0.86460   Biso      1.000     C          -0.085922           
         C25       1.0000    0.20020   0.53180   0.83190   Biso      1.000     C          -0.037537           
         C26       1.0000    0.26270   0.52730   0.76890   Biso      1.000     C          -0.085287           
         C27       1.0000    0.33030   0.40950   0.73900   Biso      1.000     C          -0.237178           
         C28       1.0000    0.12900   0.65700   0.86530   Biso      1.000     C          0.543943  
         C29       1.0000    0.07960   0.74600   0.62800   Biso      1.000     C          0.105079  
         C30       1.0000    0.07460   0.62500   0.63120   Biso      1.000     C          -0.188408           
         C31       1.0000    0.13470   0.54190   0.57900   Biso      1.000     C          0.099376  
         C32       1.0000    0.19410   0.71050   0.52670   Biso      1.000     C          0.109316  
         C33       1.0000    0.13510   0.40930   0.57980   Biso      1.000     C          0.106399  
         C34       1.0000    0.16900   0.34220   0.52230   Biso      1.000     C          -0.196404           
         C35       1.0000    0.16980   0.21900   0.52340   Biso      1.000     C          0.096391  
         C36       1.0000    0.11150   0.22250   0.63320   Biso      1.000     C          0.103929  
         C37       1.0000    0.10680   0.34680   0.63580   Biso      1.000     C          -0.186979           
         C38       1.0000    0.91730   0.26450   0.87370   Biso      1.000     C          -0.052638           
         C39       1.0000    0.21900   0.16980   0.02340   Biso      1.000     C          0.096391  
         C40       1.0000    0.86160   0.04080   0.58460   Biso      1.000     C          0.577477  
         C41       1.0000    0.22250   0.11150   0.13320   Biso      1.000     C          0.103928  
         C42       1.0000    0.26450   0.91730   0.37370   Biso      1.000     C          -0.052641           
         C43       1.0000    0.88850   0.77750   0.36680   Biso      1.000     C          0.103931  
         C44       1.0000    0.89320   0.65320   0.36420   Biso      1.000     C          -0.186997           
         C45       1.0000    0.08270   0.73550   0.12630   Biso      1.000     C          -0.05264  
         C46       1.0000    0.08390   0.62510   0.10020   Biso      1.000     C          -0.079185           
         C47       1.0000    0.11930   0.50930   0.13880   Biso      1.000     C          -0.209296           
         C48       1.0000    0.15340   0.50460   0.20380   Biso      1.000     C          0.268145  
         C49       1.0000    0.15480   0.61280   0.23040   Biso      1.000     C          -0.225993           
         C50       1.0000    0.83020   0.78100   0.47660   Biso      1.000     C          0.096389  
         C51       1.0000    0.12030   0.72790   0.19140   Biso      1.000     C          -0.087532           
         C52       1.0000    0.29810   0.33230   0.27180   Biso      1.000     C          0.276011  
         C53       1.0000    0.29980   0.26960   0.33460   Biso      1.000     C          -0.22692  
         C54       1.0000    0.41610   0.20510   0.36460   Biso      1.000     C          -0.085922           
         C55       1.0000    0.53180   0.20020   0.33190   Biso      1.000     C          -0.037537           
         C56       1.0000    0.52730   0.26270   0.26890   Biso      1.000     C          -0.085287           
         C57       1.0000    0.40950   0.33030   0.23900   Biso      1.000     C          -0.237178           
         C58       1.0000    0.65700   0.12900   0.36530   Biso      1.000     C          0.543943  
         C59       1.0000    0.04080   0.86160   0.08460   Biso      1.000     C          0.577476  
         C60       1.0000    0.83100   0.65780   0.47770   Biso      1.000     C          -0.196411           
         C61       1.0000    0.86490   0.59070   0.42020   Biso      1.000     C          0.106421  
         C62       1.0000    0.80590   0.28950   0.47330   Biso      1.000     C          0.109315  
         C63       1.0000    0.37490   0.91610   0.39980   Biso      1.000     C          -0.079185           
         C64       1.0000    0.49070   0.88070   0.36120   Biso      1.000     C          -0.209296           
         C65       1.0000    0.49540   0.84660   0.29620   Biso      1.000     C          0.268145  
         C66       1.0000    0.38720   0.84520   0.26960   Biso      1.000     C          -0.225994           
         C67       1.0000    0.27210   0.87970   0.30860   Biso      1.000     C          -0.087532           
         C68       1.0000    0.13840   0.95920   0.41540   Biso      1.000     C          0.577477  
         C69       1.0000    0.66770   0.70190   0.22820   Biso      1.000     C          0.276011  
         C70       1.0000    0.73040   0.70020   0.16540   Biso      1.000     C          -0.22692  
         C71       1.0000    0.79490   0.58390   0.13540   Biso      1.000     C          -0.085922           
         C72       1.0000    0.79980   0.46820   0.16810   Biso      1.000     C          -0.037537           
         C73       1.0000    0.73730   0.47270   0.23110   Biso      1.000     C          -0.085287           
         C74       1.0000    0.66970   0.59050   0.26100   Biso      1.000     C          -0.237178           
         C75       1.0000    0.87100   0.34300   0.13470   Biso      1.000     C          0.543942  
         C76       1.0000    0.92040   0.25400   0.37200   Biso      1.000     C          0.105079  
         C77       1.0000    0.92540   0.37500   0.36880   Biso      1.000     C          -0.188407           
         C78       1.0000    0.86530   0.45810   0.42100   Biso      1.000     C          0.099371  
         C79       1.0000    0.80500   0.41260   0.47360   Biso      1.000     C          -0.189953           
         C80       1.0000    0.34680   0.10680   0.13580   Biso      1.000     C          -0.186979           
         C81       1.0000    0.61280   0.15480   0.73040   Biso      1.000     C          -0.225998           
         C82       1.0000    0.72790   0.12030   0.69140   Biso      1.000     C          -0.087533           
         C83       1.0000    0.50930   0.11930   0.63880   Biso      1.000     C          -0.209296           
         C84       1.0000    0.25400   0.92040   0.87200   Biso      1.000     C          0.105079  
         C85       1.0000    0.37500   0.92540   0.86880   Biso      1.000     C          -0.188407           
         C86       1.0000    0.45810   0.86530   0.92100   Biso      1.000     C          0.099373  
         C87       1.0000    0.41260   0.80500   0.97360   Biso      1.000     C          -0.189954           
         C88       1.0000    0.28950   0.80590   0.97330   Biso      1.000     C          0.109315  
         C89       1.0000    0.59070   0.86490   0.92020   Biso      1.000     C          0.106398  
         C90       1.0000    0.50460   0.15340   0.70380   Biso      1.000     C          0.268148  
         C91       1.0000    0.78100   0.83020   0.97660   Biso      1.000     C          0.096387  
         C92       1.0000    0.77750   0.88850   0.86680   Biso      1.000     C          0.103928  
         C93       1.0000    0.65320   0.89320   0.86420   Biso      1.000     C          -0.186979           
         C94       1.0000    0.73550   0.08270   0.62630   Biso      1.000     C          -0.052639           
         C95       1.0000    0.62510   0.08390   0.60020   Biso      1.000     C          -0.079185           
         C96       1.0000    0.65780   0.83100   0.97770   Biso      1.000     C          -0.196401           
         H1        1.0000    0.23730   0.53410   0.48980   Biso      1.000     H          0.128792  
         H2        1.0000    0.23620   0.73940   0.48970   Biso      1.000     H          0.095586  
         H3        1.0000    0.19190   0.37990   0.48160   Biso      1.000     H          0.119218  
         H4        1.0000    0.19270   0.17490   0.48260   Biso      1.000     H          0.094881  
         H5        1.0000    0.09260   0.18120   0.67370   Biso      1.000     H          0.100318  
         H6        1.0000    0.08340   0.38860   0.67730   Biso      1.000     H          0.123719  
         H7        1.0000    0.82050   0.39150   0.72460   Biso      1.000     H          0.127564  
         H8        1.0000    0.88010   0.56610   0.87960   Biso      1.000     H          0.134779  
         H9        1.0000    0.87750   0.19790   0.79040   Biso      1.000     H          0.117518  
         H10       1.0000    0.77850   0.72890   0.64310   Biso      1.000     H          0.126786  
         H11       1.0000    0.58240   0.83680   0.59190   Biso      1.000     H          0.112923  
         H12       1.0000    0.03080   0.59900   0.66850   Biso      1.000     H          0.128572  
         H13       1.0000    0.93980   0.37140   0.94490   Biso      1.000     H          0.124242  
         H14       1.0000    0.04030   0.80070   0.66450   Biso      1.000     H          0.10731   
         H15       1.0000    0.43390   0.11990   0.62040   Biso      1.000     H          0.134779  
         H16       1.0000    0.25950   0.60550   0.74580   Biso      1.000     H          0.115658  
         H17       1.0000    0.19930   0.95970   0.83550   Biso      1.000     H          0.10731   
         H18       1.0000    0.40100   0.96920   0.83150   Biso      1.000     H          0.128572  
         H19       1.0000    0.46590   0.76270   0.01020   Biso      1.000     H          0.128791  
         H20       1.0000    0.26060   0.76380   0.01030   Biso      1.000     H          0.095586  
         H21       1.0000    0.62010   0.80810   0.01840   Biso      1.000     H          0.119217  
         H22       1.0000    0.82510   0.80730   0.01740   Biso      1.000     H          0.094881  
         H23       1.0000    0.37470   0.40710   0.69610   Biso      1.000     H          0.131666  
         H24       1.0000    0.81880   0.90740   0.82630   Biso      1.000     H          0.100318  
         H25       1.0000    0.62860   0.06020   0.55510   Biso      1.000     H          0.124242  
         H26       1.0000    0.39450   0.74050   0.75420   Biso      1.000     H          0.115658  
         H27       1.0000    0.60850   0.17950   0.77540   Biso      1.000     H          0.127564  
         H28       1.0000    0.80210   0.12250   0.70960   Biso      1.000     H          0.117518  
         H29       1.0000    0.27110   0.22150   0.85690   Biso      1.000     H          0.126786  
         H30       1.0000    0.16320   0.41760   0.90810   Biso      1.000     H          0.112923  
         H31       1.0000    0.61140   0.91660   0.82270   Biso      1.000     H          0.123719  
         H32       1.0000    0.59290   0.62530   0.80390   Biso      1.000     H          0.131666  
         H33       1.0000    0.37990   0.19190   0.98160   Biso      1.000     H          0.119218  
         H34       1.0000    0.59900   0.03080   0.16850   Biso      1.000     H          0.128572  
         H35       1.0000    0.40710   0.37470   0.19610   Biso      1.000     H          0.131665  
         H36       1.0000    0.60550   0.25950   0.24580   Biso      1.000     H          0.115658  
         H37       1.0000    0.41760   0.16320   0.40810   Biso      1.000     H          0.112923  
         H38       1.0000    0.22150   0.27110   0.35690   Biso      1.000     H          0.126786  
         H39       1.0000    0.12250   0.80210   0.20960   Biso      1.000     H          0.117517  
         H40       1.0000    0.17950   0.60850   0.27540   Biso      1.000     H          0.127563  
         H41       1.0000    0.11990   0.43390   0.12040   Biso      1.000     H          0.134779  
         H42       1.0000    0.06020   0.62860   0.05510   Biso      1.000     H          0.124242  
         H43       1.0000    0.91660   0.61140   0.32270   Biso      1.000     H          0.12372   
         H44       1.0000    0.90740   0.81880   0.32630   Biso      1.000     H          0.100318  
         H45       1.0000    0.80070   0.04030   0.16450   Biso      1.000     H          0.10731   
         H46       1.0000    0.80810   0.62010   0.51840   Biso      1.000     H          0.119219  
         H47       1.0000    0.76380   0.26060   0.51030   Biso      1.000     H          0.095586  
         H48       1.0000    0.76270   0.46590   0.51020   Biso      1.000     H          0.128791  
         H49       1.0000    0.80730   0.82510   0.51740   Biso      1.000     H          0.094882  
         H50       1.0000    0.95970   0.19930   0.33550   Biso      1.000     H          0.10731   
         H51       1.0000    0.53410   0.23730   0.98980   Biso      1.000     H          0.128791  
         H52       1.0000    0.73940   0.23620   0.98970   Biso      1.000     H          0.095586  
         H53       1.0000    0.96920   0.40100   0.33150   Biso      1.000     H          0.128572  
         H54       1.0000    0.18120   0.09260   0.17370   Biso      1.000     H          0.100318  
         H55       1.0000    0.38860   0.08340   0.17730   Biso      1.000     H          0.123719  
         H56       1.0000    0.37140   0.93980   0.44490   Biso      1.000     H          0.124242  
         H57       1.0000    0.17490   0.19270   0.98260   Biso      1.000     H          0.094881  
         H58       1.0000    0.39150   0.82050   0.22460   Biso      1.000     H          0.127563  
         H59       1.0000    0.19790   0.87750   0.29040   Biso      1.000     H          0.117518  
         H60       1.0000    0.72890   0.77850   0.14310   Biso      1.000     H          0.126786  
         H61       1.0000    0.83680   0.58240   0.09190   Biso      1.000     H          0.112923  
         H62       1.0000    0.74050   0.39450   0.25420   Biso      1.000     H          0.115658  
         H63       1.0000    0.62530   0.59290   0.30390   Biso      1.000     H          0.131665  
         H64       1.0000    0.56610   0.88010   0.37960   Biso      1.000     H          0.134779  
         N1        1.0000    0.78978   0.13698   0.07620   Biso      1.000     N          -0.199638           
         N2        1.0000    0.13698   0.78978   0.57620   Biso      1.000     N          -0.199638           
         N3        1.0000    0.15944   0.14064   0.07770   Biso      1.000     N          -0.190111           
         N4        1.0000    0.86302   0.21022   0.42380   Biso      1.000     N          -0.199638           
         N5        1.0000    0.85936   0.84056   0.42230   Biso      1.000     N          -0.19011  
         N6        1.0000    0.21022   0.86302   0.92380   Biso      1.000     N          -0.199637           
         N7        1.0000    0.84056   0.85936   0.92230   Biso      1.000     N          -0.19011  
         N8        1.0000    0.14064   0.15944   0.57770   Biso      1.000     N          -0.19011  
         Ni1       1.0000    0.02562   0.85974   0.92530   Biso      1.000     Ni          0.781214  
         Ni2       1.0000    0.85974   0.02562   0.42530   Biso      1.000     Ni          0.781226  
         Ni3       1.0000    0.97438   0.14026   0.07470   Biso      1.000     Ni          0.781214  
         Ni4       1.0000    0.14026   0.97438   0.57470   Biso      1.000     Ni          0.781226  
         O1        1.0000    0.17810   0.39090   0.24370   Biso      1.000     O          -0.247537           
         O2        1.0000    0.76256   0.08856   0.33151   Biso      1.000     O          -0.526828           
         O3        1.0000    0.65327   0.11247   0.42968   Biso      1.000     O          -0.560121           
         O4        1.0000    0.04482   0.94982   0.38948   Biso      1.000     O          -0.553944           
         O5        1.0000    0.13493   0.00153   0.47225   Biso      1.000     O          -0.589407           
         O6        1.0000    0.60910   0.82190   0.25630   Biso      1.000     O          -0.247537           
         O7        1.0000    0.91144   0.23744   0.16849   Biso      1.000     O          -0.526826           
         O8        1.0000    0.88753   0.34673   0.07032   Biso      1.000     O          -0.560114           
         O9        1.0000    0.94982   0.04482   0.88948   Biso      1.000     O          -0.553938           
         O10       1.0000    0.00153   0.13493   0.97225   Biso      1.000     O          -0.589405           
         O11       1.0000    0.82190   0.60910   0.75630   Biso      1.000     O          -0.247537           
         O12       1.0000    0.23744   0.91144   0.66849   Biso      1.000     O          -0.526828           
         O13       1.0000    0.34673   0.88753   0.57032   Biso      1.000     O          -0.56012  
         O14       1.0000    0.95518   0.05018   0.61052   Biso      1.000     O          -0.553944           
         O15       1.0000    0.86507   0.99847   0.52775   Biso      1.000     O          -0.589407           
         O16       1.0000    0.39090   0.17810   0.74370   Biso      1.000     O          -0.247537           
         O17       1.0000    0.08856   0.76256   0.83151   Biso      1.000     O          -0.526826           
         O18       1.0000    0.11247   0.65327   0.92968   Biso      1.000     O          -0.560114           
         O19       1.0000    0.99847   0.86507   0.02775   Biso      1.000     O          -0.589404           
         O20       1.0000    0.05018   0.95518   0.11052   Biso      1.000     O          -0.553938 