
##########################################################################
#               Crystallographic Information Format file
#               Produced by PyCifRW module
#
#  This is a CIF file.  CIF has been adopted by the International
#  Union of Crystallography as the standard for data archiving and
#  transmission.
#
#  For information on this file format, follow the CIF links at
#  http://www.iucr.org
##########################################################################

data_image0

_cell_length_a                          4.8218
_cell_length_b                          18.295
_cell_length_c                          19.8911
_cell_angle_alpha                       90
_cell_angle_beta                        90
_cell_angle_gamma                       95.077
_symmetry_space_group_name_H-M          'P 1'
_symmetry_int_tables_number             1
loop_
  _symmetry_equiv_pos_as_xyz
         'x, y, z' 
loop_
  _atom_site_label
  _atom_site_occupancy
  _atom_site_fract_x
  _atom_site_fract_y
  _atom_site_fract_z
  _atom_site_thermal_displace_type
  _atom_site_B_iso_or_equiv
  _atom_site_type_symbol
  _atom_site_charge
         C1        1.0000    0.66730   0.50560   0.30010   Biso      1.000     C          -0.247509           
         C2        1.0000    0.37620   0.86440   0.94950   Biso      1.000     C          -0.546824           
         C3        1.0000    0.52510   0.93700   0.70790   Biso      1.000     C          -0.528355           
         C4        1.0000    0.83270   0.99440   0.80010   Biso      1.000     C          -0.247507           
         C5        1.0000    0.89830   0.00580   0.86710   Biso      1.000     C          0.21334499999999998           
         C6        1.0000    0.74930   0.96400   0.91450   Biso      1.000     C          -0.266225           
         C7        1.0000    0.52990   0.91250   0.89740   Biso      1.000     C          0.21497   
         C8        1.0000    0.12450   0.06480   0.88700   Biso      1.000     C          -0.5419579999999999           
         C9        1.0000    0.45680   0.90670   0.83020   Biso      1.000     C          -0.244538           
         C10       1.0000    0.37550   0.43520   0.38700   Biso      1.000     C          -0.541959           
         C11       1.0000    0.12380   0.63560   0.44950   Biso      1.000     C          -0.546826           
         C12       1.0000    0.97490   0.56300   0.20790   Biso      1.000     C          -0.528361           
         C13       1.0000    0.60170   0.49420   0.36710   Biso      1.000     C          0.213346  
         C14       1.0000    0.75070   0.53600   0.41450   Biso      1.000     C          -0.266232           
         C15       1.0000    0.97010   0.58750   0.39740   Biso      1.000     C          0.21496700000000002           
         C16       1.0000    0.60340   0.94620   0.78120   Biso      1.000     C          0.20064   
         C17       1.0000    0.10340   0.44620   0.71880   Biso      1.000     C          0.200648  
         C18       1.0000    0.95680   0.40670   0.66980   Biso      1.000     C          -0.24455900000000003          
         C19       1.0000    0.02990   0.41250   0.60260   Biso      1.000     C          0.214979  
         C20       1.0000    0.87550   0.93520   0.11300   Biso      1.000     C          -0.5419619999999999           
         C21       1.0000    0.62380   0.13560   0.05050   Biso      1.000     C          -0.546822           
         C22       1.0000    0.47490   0.06300   0.29210   Biso      1.000     C          -0.528353           
         C23       1.0000    0.16730   0.00560   0.19990   Biso      1.000     C          -0.247462           
         C24       1.0000    0.10170   0.99420   0.13290   Biso      1.000     C          0.213358  
         C25       1.0000    0.25070   0.03600   0.08550   Biso      1.000     C          -0.26618200000000003          
         C26       1.0000    0.47010   0.08750   0.10260   Biso      1.000     C          0.21497199999999997           
         C27       1.0000    0.54320   0.09330   0.16980   Biso      1.000     C          -0.24455700000000002          
         C28       1.0000    0.39660   0.05380   0.21880   Biso      1.000     C          0.200651  
         C29       1.0000    0.62450   0.56480   0.61300   Biso      1.000     C          -0.5419609999999999           
         C30       1.0000    0.87620   0.36440   0.55050   Biso      1.000     C          -0.546824           
         C31       1.0000    0.02510   0.43700   0.79210   Biso      1.000     C          -0.528353           
         C32       1.0000    0.33270   0.49440   0.69990   Biso      1.000     C          -0.24746300000000002          
         C33       1.0000    0.39830   0.50580   0.63290   Biso      1.000     C          0.213362  
         C34       1.0000    0.24930   0.46400   0.58550   Biso      1.000     C          -0.266183           
         C35       1.0000    0.04320   0.59330   0.33020   Biso      1.000     C          -0.24453899999999998          
         C36       1.0000    0.89660   0.55380   0.28120   Biso      1.000     C          0.200638  
         Cu1       1.0000    0.97798   0.79760   0.29644   Biso      1.000     Cu          0.8355239999999999  
         Cu2       1.0000    0.39270   0.20350   0.47000   Biso      1.000     Cu          1.108716  
         Cu3       1.0000    0.42034   0.74874   0.15741   Biso      1.000     Cu          1.113216  
         Cu4       1.0000    0.89270   0.70350   0.03000   Biso      1.000     Cu          1.108681  
         Cu5       1.0000    0.52202   0.70240   0.79644   Biso      1.000     Cu          0.835543  
         Cu6       1.0000    0.07966   0.75126   0.65741   Biso      1.000     Cu          1.11321   
         Cu7       1.0000    0.60730   0.79650   0.53000   Biso      1.000     Cu          1.1086989999999999  
         Cu8       1.0000    0.02202   0.20240   0.70356   Biso      1.000     Cu          0.8355809999999999  
         Cu9       1.0000    0.57966   0.25126   0.84259   Biso      1.000     Cu          1.1132    
         Cu10      1.0000    0.10730   0.29650   0.97000   Biso      1.000     Cu          1.108706  
         Cu11      1.0000    0.47798   0.29760   0.20356   Biso      1.000     Cu          0.8356    
         Cu12      1.0000    0.92034   0.24874   0.34259   Biso      1.000     Cu          1.113193  
         H1        1.0000    0.36990   0.43160   0.43570   Biso      1.000     H          0.17337   
         H2        1.0000    0.19700   0.44990   0.37210   Biso      1.000     H          0.1786    
         H3        1.0000    0.06450   0.61860   0.49380   Biso      1.000     H          0.178704  
         H4        1.0000    0.32130   0.63000   0.44560   Biso      1.000     H          0.17929900000000001           
         H5        1.0000    0.16930   0.55430   0.20260   Biso      1.000     H          0.189923  
         H6        1.0000    0.33070   0.94570   0.70260   Biso      1.000     H          0.189922  
         H7        1.0000    0.55850   0.48100   0.26710   Biso      1.000     H          0.128178  
         H8        1.0000    0.19630   0.62500   0.31790   Biso      1.000     H          0.140046  
         H9        1.0000    0.63470   0.97400   0.68190   Biso      1.000     H          0.180311  
         H10       1.0000    0.30370   0.87500   0.81790   Biso      1.000     H          0.140046  
         H11       1.0000    0.86530   0.52600   0.18190   Biso      1.000     H          0.180312  
         H12       1.0000    0.79660   0.97030   0.95960   Biso      1.000     H          0.11713599999999999           
         H13       1.0000    0.70340   0.52970   0.45960   Biso      1.000     H          0.11713   
         H14       1.0000    0.86990   0.93160   0.06430   Biso      1.000     H          0.17338   
         H15       1.0000    0.29660   0.47030   0.54040   Biso      1.000     H          0.11715899999999999           
         H16       1.0000    0.44150   0.51900   0.73290   Biso      1.000     H          0.128197  
         H17       1.0000    0.13470   0.47400   0.81810   Biso      1.000     H          0.180339  
         H18       1.0000    0.83070   0.44570   0.79740   Biso      1.000     H          0.189941  
         H19       1.0000    0.67870   0.37000   0.55440   Biso      1.000     H          0.179309  
         H20       1.0000    0.93550   0.38140   0.50620   Biso      1.000     H          0.178727  
         H21       1.0000    0.80300   0.55010   0.62790   Biso      1.000     H          0.178596  
         H22       1.0000    0.94150   0.01900   0.76710   Biso      1.000     H          0.12817699999999999           
         H23       1.0000    0.30300   0.05010   0.87210   Biso      1.000     H          0.178601  
         H24       1.0000    0.43550   0.88140   0.99380   Biso      1.000     H          0.17870899999999998           
         H25       1.0000    0.17870   0.87000   0.94560   Biso      1.000     H          0.179301  
         H26       1.0000    0.80370   0.37500   0.68210   Biso      1.000     H          0.140045  
         H27       1.0000    0.13010   0.06840   0.93570   Biso      1.000     H          0.173376  
         H28       1.0000    0.20340   0.02970   0.04040   Biso      1.000     H          0.117149  
         H29       1.0000    0.69700   0.94990   0.12790   Biso      1.000     H          0.178594  
         H30       1.0000    0.56450   0.11860   0.00620   Biso      1.000     H          0.17871900000000002           
         H31       1.0000    0.82130   0.13000   0.05440   Biso      1.000     H          0.179305  
         H32       1.0000    0.63010   0.56840   0.56430   Biso      1.000     H          0.17338599999999998           
         H33       1.0000    0.66930   0.05430   0.29740   Biso      1.000     H          0.18994   
         H34       1.0000    0.69630   0.12500   0.18210   Biso      1.000     H          0.140042  
         H35       1.0000    0.36530   0.02600   0.31810   Biso      1.000     H          0.18034   
         H36       1.0000    0.05850   0.98100   0.23290   Biso      1.000     H          0.128195  
         O1        1.0000    0.73380   0.75670   0.95412   Biso      1.000     O          -0.7783760000000001           
         O2        1.0000    0.76910   0.16515   0.85978   Biso      1.000     O          -0.73832  
         O3        1.0000    0.25320   0.72760   0.99710   Biso      1.000     O          -0.798057           
         O4        1.0000    0.83560   0.24300   0.62747   Biso      1.000     O          -0.755933           
         O5        1.0000    0.98730   0.34760   0.89870   Biso      1.000     O          -0.809537           
         O6        1.0000    0.38390   0.33670   0.81674   Biso      1.000     O          -0.74325  
         O7        1.0000    0.18750   0.15634   0.78094   Biso      1.000     O          -0.814645           
         O8        1.0000    0.26070   0.21067   0.89503   Biso      1.000     O          -0.7802319999999999           
         O9        1.0000    0.89010   0.29080   0.78672   Biso      1.000     O          -0.74429  
         O10       1.0000    0.23380   0.25670   0.54588   Biso      1.000     O          -0.778363           
         O11       1.0000    0.68750   0.65634   0.71906   Biso      1.000     O          -0.814683           
         O12       1.0000    0.76070   0.71067   0.60497   Biso      1.000     O          -0.78025  
         O13       1.0000    0.26910   0.66515   0.64022   Biso      1.000     O          -0.738358           
         O14       1.0000    0.60990   0.20920   0.28672   Biso      1.000     O          -0.74429  
         O15       1.0000    0.11610   0.16330   0.31674   Biso      1.000     O          -0.743252           
         O16       1.0000    0.51270   0.15240   0.39870   Biso      1.000     O          -0.809541           
         O17       1.0000    0.66440   0.25700   0.12747   Biso      1.000     O          -0.755943           
         O18       1.0000    0.26620   0.24330   0.04588   Biso      1.000     O          -0.778359           
         O19       1.0000    0.74680   0.27240   0.00290   Biso      1.000     O          -0.798049           
         O20       1.0000    0.33560   0.74300   0.87253   Biso      1.000     O          -0.755945           
         O21       1.0000    0.81250   0.84366   0.21906   Biso      1.000     O          -0.814681           
         O22       1.0000    0.75320   0.22760   0.50290   Biso      1.000     O          -0.798036           
         O23       1.0000    0.48730   0.84760   0.60130   Biso      1.000     O          -0.80957  
         O24       1.0000    0.23090   0.83485   0.14022   Biso      1.000     O          -0.738358           
         O25       1.0000    0.39010   0.79080   0.71328   Biso      1.000     O          -0.7443029999999999           
         O26       1.0000    0.73090   0.33485   0.35978   Biso      1.000     O          -0.738326           
         O27       1.0000    0.23930   0.28933   0.39503   Biso      1.000     O          -0.780242           
         O28       1.0000    0.31250   0.34366   0.28094   Biso      1.000     O          -0.814652           
         O29       1.0000    0.24680   0.77240   0.49710   Biso      1.000     O          -0.798064           
         O30       1.0000    0.76620   0.74330   0.45412   Biso      1.000     O          -0.77837  
         O31       1.0000    0.16440   0.75700   0.37253   Biso      1.000     O          -0.755942           
         O32       1.0000    0.01270   0.65240   0.10130   Biso      1.000     O          -0.8095760000000001           
         O33       1.0000    0.61610   0.66330   0.18326   Biso      1.000     O          -0.743268           
         O34       1.0000    0.10990   0.70920   0.21328   Biso      1.000     O          -0.7442989999999999           
         O35       1.0000    0.73930   0.78933   0.10497   Biso      1.000     O          -0.780249           
         O36       1.0000    0.88390   0.83670   0.68326   Biso      1.000     O          -0.74327  
         P1        1.0000    0.92390   0.84679   0.14722   Biso      1.000     P          1.396454  
         P2        1.0000    0.57240   0.23160   0.05722   Biso      1.000     P          1.409808  
         P3        1.0000    0.42290   0.15153   0.32540   Biso      1.000     P          1.3797760000000001  
         P4        1.0000    0.57610   0.65321   0.64722   Biso      1.000     P          1.39645   
         P5        1.0000    0.42390   0.34679   0.35278   Biso      1.000     P          1.3964530000000002  
         P6        1.0000    0.07710   0.34847   0.82540   Biso      1.000     P          1.3797840000000001  
         P7        1.0000    0.07610   0.15321   0.85278   Biso      1.000     P          1.396456  
         P8        1.0000    0.42760   0.76840   0.94278   Biso      1.000     P          1.409797  
         P9        1.0000    0.57710   0.84847   0.67460   Biso      1.000     P          1.379774  
         P10       1.0000    0.07240   0.73160   0.44278   Biso      1.000     P          1.409801  
         P11       1.0000    0.92760   0.26840   0.55722   Biso      1.000     P          1.4098110000000001  
         P12       1.0000    0.92290   0.65153   0.17460   Biso      1.000     P          1.379779 