
##########################################################################
#               Crystallographic Information Format file
#               Produced by PyCifRW module
#
#  This is a CIF file.  CIF has been adopted by the International
#  Union of Crystallography as the standard for data archiving and
#  transmission.
#
#  For information on this file format, follow the CIF links at
#  http://www.iucr.org
##########################################################################

data_image0

_cell_length_a                          9.5565
_cell_length_b                          12.4706
_cell_length_c                          22.7571
_cell_angle_alpha                       90
_cell_angle_beta                        101.594
_cell_angle_gamma                       90
_symmetry_space_group_name_H-M          'P 1'
_symmetry_int_tables_number             1
loop_
  _symmetry_equiv_pos_as_xyz
         'x, y, z' 
loop_
  _atom_site_label
  _atom_site_occupancy
  _atom_site_fract_x
  _atom_site_fract_y
  _atom_site_fract_z
  _atom_site_thermal_displace_type
  _atom_site_B_iso_or_equiv
  _atom_site_type_symbol
  _atom_site_charge
         C1        1.0000    0.84690   0.36720   0.70890   Biso      1.000     C          -0.351295           
         C2        1.0000    0.70261   0.19690   0.38781   Biso      1.000     C          0.680012  
         C3        1.0000    0.80390   0.18370   0.44490   Biso      1.000     C          -0.376339           
         C4        1.0000    0.74077   0.12790   0.49357   Biso      1.000     C          -0.040392           
         C5        1.0000    0.94567   0.06530   0.56777   Biso      1.000     C          0.552349  
         C6        1.0000    0.03791   0.17170   0.65761   Biso      1.000     C          0.56814   
         C7        1.0000    0.82670   0.22950   0.58600   Biso      1.000     C          0.564342  
         C8        1.0000    0.71071   0.72720   0.90531   Biso      1.000     C          0.707388  
         C9        1.0000    0.79910   0.73400   0.96790   Biso      1.000     C          -0.360153           
         C10       1.0000    0.73097   0.79300   0.01247   Biso      1.000     C          -0.046023           
         C11       1.0000    0.90924   0.43400   0.26114   Biso      1.000     C          0.725324  
         C12       1.0000    0.95120   0.51720   0.21840   Biso      1.000     C          -0.386215           
         C13       1.0000    0.83830   0.60370   0.20500   Biso      1.000     C          -0.039918           
         C14       1.0000    0.16820   0.08920   0.23410   Biso      1.000     C          0.690959  
         C15       1.0000    0.06340   0.00410   0.21070   Biso      1.000     C          -0.374944           
         C16       1.0000    0.11760   0.91850   0.17250   Biso      1.000     C          -0.048815           
         C17       1.0000    0.92784   0.85520   0.09264   Biso      1.000     C          0.540113  
         C18       1.0000    0.79154   0.69490   0.10754   Biso      1.000     C          0.545088  
         C19       1.0000    0.93940   0.35060   0.66530   Biso      1.000     C          -0.040917           
         C20       1.0000    0.43940   0.64940   0.16530   Biso      1.000     C          -0.040917           
         C21       1.0000    0.87360   0.47590   0.73940   Biso      1.000     C          0.677562  
         C22       1.0000    0.14830   0.99810   0.64190   Biso      1.000     C          -0.036159           
         C23       1.0000    0.24077   0.87210   0.99357   Biso      1.000     C          -0.040392           
         C24       1.0000    0.44567   0.93470   0.06777   Biso      1.000     C          0.552349  
         C25       1.0000    0.53791   0.82830   0.15761   Biso      1.000     C          0.56814   
         C26       1.0000    0.32670   0.77050   0.08600   Biso      1.000     C          0.564342  
         C27       1.0000    0.21071   0.27280   0.40531   Biso      1.000     C          0.707388  
         C28       1.0000    0.29910   0.26600   0.46790   Biso      1.000     C          -0.360153           
         C29       1.0000    0.23097   0.20700   0.51247   Biso      1.000     C          -0.046023           
         C30       1.0000    0.40924   0.56600   0.76114   Biso      1.000     C          0.725324  
         C31       1.0000    0.97702   0.76230   0.18842   Biso      1.000     C          0.549314  
         C32       1.0000    0.45120   0.48280   0.71840   Biso      1.000     C          -0.386215           
         C33       1.0000    0.66820   0.91080   0.73410   Biso      1.000     C          0.690959  
         C34       1.0000    0.56340   0.99590   0.71070   Biso      1.000     C          -0.374944           
         C35       1.0000    0.61760   0.08150   0.67250   Biso      1.000     C          -0.048815           
         C36       1.0000    0.42784   0.14480   0.59264   Biso      1.000     C          0.540113  
         C37       1.0000    0.29154   0.30510   0.60754   Biso      1.000     C          0.545088  
         C38       1.0000    0.47702   0.23770   0.68842   Biso      1.000     C          0.549314  
         C39       1.0000    0.18240   0.82450   0.70130   Biso      1.000     C          0.702915  
         C40       1.0000    0.08280   0.90110   0.66190   Biso      1.000     C          -0.368016           
         C41       1.0000    0.33830   0.39630   0.70500   Biso      1.000     C          -0.039918           
         C42       1.0000    0.30390   0.81630   0.94490   Biso      1.000     C          -0.376339           
         C43       1.0000    0.20261   0.80310   0.88781   Biso      1.000     C          0.680012  
         C44       1.0000    0.68240   0.17550   0.20130   Biso      1.000     C          0.702915  
         C45       1.0000    0.58280   0.09890   0.16190   Biso      1.000     C          -0.368016           
         C46       1.0000    0.64830   0.00190   0.14190   Biso      1.000     C          -0.036158           
         C47       1.0000    0.37360   0.52410   0.23940   Biso      1.000     C          0.677562  
         C48       1.0000    0.34690   0.63280   0.20890   Biso      1.000     C          -0.351295           
         H1        1.0000    0.13400   0.23580   0.51140   Biso      1.000     H          0.099292  
         H2        1.0000    0.91590   0.40580   0.63360   Biso      1.000     H          0.111638  
         H3        1.0000    0.03980   0.36230   0.68600   Biso      1.000     H          0.099726  
         H4        1.0000    0.88670   0.14150   0.43780   Biso      1.000     H          0.143791  
         H5        1.0000    0.83960   0.25520   0.45980   Biso      1.000     H          0.156462  
         H6        1.0000    0.72580   0.05090   0.48370   Biso      1.000     H          0.118977  
         H7        1.0000    0.64700   0.16010   0.49530   Biso      1.000     H          0.104388  
         H8        1.0000    0.82170   0.66030   0.98290   Biso      1.000     H          0.152346  
         H9        1.0000    0.89050   0.76980   0.96590   Biso      1.000     H          0.152305  
         H10       1.0000    0.63400   0.76420   0.01140   Biso      1.000     H          0.099292  
         H11       1.0000    0.72210   0.87000   0.00180   Biso      1.000     H          0.110949  
         H12       1.0000    0.82650   0.63760   0.24300   Biso      1.000     H          0.112173  
         H13       1.0000    0.04410   0.54980   0.23680   Biso      1.000     H          0.152201  
         H14       1.0000    0.86520   0.31000   0.73970   Biso      1.000     H          0.158157  
         H15       1.0000    0.74580   0.57080   0.18610   Biso      1.000     H          0.108559  
         H16       1.0000    0.03370   0.96830   0.24500   Biso      1.000     H          0.149942  
         H17       1.0000    0.97760   0.03820   0.18620   Biso      1.000     H          0.149873  
         H18       1.0000    0.20090   0.88130   0.19700   Biso      1.000     H          0.10023   
         H19       1.0000    0.14930   0.95320   0.13830   Biso      1.000     H          0.105148  
         H20       1.0000    0.44310   0.21900   0.31940   Biso      1.000     H          0.453909  
         H21       1.0000    0.41620   0.19420   0.25950   Biso      1.000     H          0.455706  
         H22       1.0000    0.96180   0.48190   0.18060   Biso      1.000     H          0.150091  
         H23       1.0000    0.22210   0.13000   0.50180   Biso      1.000     H          0.110949  
         H24       1.0000    0.74560   0.36230   0.68810   Biso      1.000     H          0.140326  
         H25       1.0000    0.22150   0.02630   0.67550   Biso      1.000     H          0.099461  
         H26       1.0000    0.39050   0.23020   0.46590   Biso      1.000     H          0.152305  
         H27       1.0000    0.32170   0.33970   0.48290   Biso      1.000     H          0.152346  
         H28       1.0000    0.14700   0.83990   0.99530   Biso      1.000     H          0.104388  
         H29       1.0000    0.22580   0.94910   0.98370   Biso      1.000     H          0.118977  
         H30       1.0000    0.33960   0.74480   0.95980   Biso      1.000     H          0.156462  
         H31       1.0000    0.46180   0.51810   0.68060   Biso      1.000     H          0.150091  
         H32       1.0000    0.53980   0.63770   0.18600   Biso      1.000     H          0.099726  
         H33       1.0000    0.41590   0.59420   0.13360   Biso      1.000     H          0.111638  
         H34       1.0000    0.36520   0.69000   0.23970   Biso      1.000     H          0.158157  
         H35       1.0000    0.24560   0.63770   0.18810   Biso      1.000     H          0.140326  
         H36       1.0000    0.69660   0.02090   0.10870   Biso      1.000     H          0.104468  
         H37       1.0000    0.72150   0.97370   0.17550   Biso      1.000     H          0.099461  
         H38       1.0000    0.53400   0.13850   0.12590   Biso      1.000     H          0.147834  
         H39       1.0000    0.50860   0.07600   0.18400   Biso      1.000     H          0.154226  
         H40       1.0000    0.54410   0.45020   0.73680   Biso      1.000     H          0.152201  
         H41       1.0000    0.32650   0.36240   0.74300   Biso      1.000     H          0.112173  
         H42       1.0000    0.24580   0.42920   0.68610   Biso      1.000     H          0.108559  
         H43       1.0000    0.53370   0.03170   0.74500   Biso      1.000     H          0.149942  
         H44       1.0000    0.47760   0.96180   0.68620   Biso      1.000     H          0.149873  
         H45       1.0000    0.70090   0.11870   0.69700   Biso      1.000     H          0.10023   
         H46       1.0000    0.64930   0.04680   0.63830   Biso      1.000     H          0.105148  
         H47       1.0000    0.94310   0.78100   0.81940   Biso      1.000     H          0.453909  
         H48       1.0000    0.91620   0.80580   0.75950   Biso      1.000     H          0.455706  
         H49       1.0000    0.00860   0.92400   0.68400   Biso      1.000     H          0.154226  
         H50       1.0000    0.03400   0.86150   0.62590   Biso      1.000     H          0.147834  
         H51       1.0000    0.19660   0.97910   0.60870   Biso      1.000     H          0.104468  
         H52       1.0000    0.38670   0.85850   0.93780   Biso      1.000     H          0.143791  
         Mn1       1.0000    0.94217   0.19349   0.30921   Biso      1.000     Mn          1.071012  
         Mn2       1.0000    0.71739   0.66987   0.77397   Biso      1.000     Mn          1.050298  
         Mn3       1.0000    0.11508   0.64351   0.78271   Biso      1.000     Mn          1.08405   
         Mn4       1.0000    0.44217   0.80651   0.80921   Biso      1.000     Mn          1.071012  
         Mn5       1.0000    0.21739   0.33013   0.27397   Biso      1.000     Mn          1.050298  
         Mn6       1.0000    0.61508   0.35649   0.28271   Biso      1.000     Mn          1.08405   
         N1        1.0000    0.54043   0.91800   0.12143   Biso      1.000     N          -0.255901           
         N2        1.0000    0.42879   0.75580   0.13659   Biso      1.000     N          -0.253877           
         N3        1.0000    0.33895   0.86060   0.05295   Biso      1.000     N          -0.242517           
         N4        1.0000    0.31870   0.21930   0.57380   Biso      1.000     N          -0.233608           
         N5        1.0000    0.50553   0.15970   0.65003   Biso      1.000     N          -0.223187           
         N6        1.0000    0.37659   0.31370   0.66469   Biso      1.000     N          -0.230438           
         N7        1.0000    0.92879   0.24420   0.63659   Biso      1.000     N          -0.253877           
         N8        1.0000    0.83895   0.13940   0.55295   Biso      1.000     N          -0.242517           
         N9        1.0000    0.81870   0.78070   0.07380   Biso      1.000     N          -0.233608           
         N10       1.0000    0.87659   0.68630   0.16469   Biso      1.000     N          -0.230438           
         N11       1.0000    0.00553   0.84030   0.15003   Biso      1.000     N          -0.223187           
         N12       1.0000    0.04043   0.08200   0.62143   Biso      1.000     N          -0.255901           
         O1        1.0000    0.26118   0.32850   0.36888   Biso      1.000     O          -0.576246           
         O2        1.0000    0.19770   0.36810   0.58860   Biso      1.000     O          -0.481817           
         O3        1.0000    0.45054   0.07140   0.56044   Biso      1.000     O          -0.473081           
         O4        1.0000    0.62837   0.83860   0.76737   Biso      1.000     O          -0.639056           
         O5        1.0000    0.78978   0.91360   0.72148   Biso      1.000     O          -0.559345           
         O6        1.0000    0.29958   0.55150   0.78098   Biso      1.000     O          -0.54889  
         O7        1.0000    0.49013   0.64780   0.77323   Biso      1.000     O          -0.618524           
         O8        1.0000    0.09233   0.22260   0.39343   Biso      1.000     O          -0.596593           
         O9        1.0000    0.79797   0.13720   0.23017   Biso      1.000     O          -0.592135           
         O10       1.0000    0.62362   0.81360   0.20132   Biso      1.000     O          -0.460855           
         O11       1.0000    0.46068   0.01080   0.03558   Biso      1.000     O          -0.484029           
         O12       1.0000    0.24941   0.76390   0.84321   Biso      1.000     O          -0.657146           
         O13       1.0000    0.07408   0.82820   0.88538   Biso      1.000     O          -0.540188           
         O14       1.0000    0.48256   0.47310   0.23186   Biso      1.000     O          -0.561478           
         O15       1.0000    0.28452   0.49100   0.26992   Biso      1.000     O          -0.581939           
         O16       1.0000    0.53825   0.24240   0.74025   Biso      1.000     O          -0.475716           
         O17       1.0000    0.23152   0.70590   0.06972   Biso      1.000     O          -0.496074           
         O18       1.0000    0.42739   0.24580   0.28439   Biso      1.000     O          -0.861399           
         O19       1.0000    0.12362   0.18640   0.70132   Biso      1.000     O          -0.460855           
         O20       1.0000    0.29797   0.86280   0.73017   Biso      1.000     O          -0.592135           
         O21       1.0000    0.03825   0.75760   0.24025   Biso      1.000     O          -0.475716           
         O22       1.0000    0.69770   0.63190   0.08860   Biso      1.000     O          -0.481817           
         O23       1.0000    0.95054   0.92860   0.06044   Biso      1.000     O          -0.473081           
         O24       1.0000    0.12837   0.16140   0.26737   Biso      1.000     O          -0.639056           
         O25       1.0000    0.28978   0.08640   0.22148   Biso      1.000     O          -0.559345           
         O26       1.0000    0.79958   0.44850   0.28098   Biso      1.000     O          -0.54889  
         O27       1.0000    0.99013   0.35220   0.27323   Biso      1.000     O          -0.618524           
         O28       1.0000    0.13974   0.73080   0.70544   Biso      1.000     O          -0.587821           
         O29       1.0000    0.76118   0.67150   0.86888   Biso      1.000     O          -0.576246           
         O30       1.0000    0.73152   0.29410   0.56972   Biso      1.000     O          -0.496074           
         O31       1.0000    0.63974   0.26920   0.20544   Biso      1.000     O          -0.587821           
         O32       1.0000    0.96068   0.98920   0.53558   Biso      1.000     O          -0.484029           
         O33       1.0000    0.74941   0.23610   0.34321   Biso      1.000     O          -0.657146           
         O34       1.0000    0.57408   0.17180   0.38538   Biso      1.000     O          -0.540188           
         O35       1.0000    0.98256   0.52690   0.73186   Biso      1.000     O          -0.561478           
         O36       1.0000    0.78452   0.50900   0.76992   Biso      1.000     O          -0.581939           
         O37       1.0000    0.59233   0.77740   0.89343   Biso      1.000     O          -0.596593           
         O38       1.0000    0.92739   0.75420   0.78439   Biso      1.000     O          -0.861399 