
##########################################################################
#               Crystallographic Information Format file
#               Produced by PyCifRW module
#
#  This is a CIF file.  CIF has been adopted by the International
#  Union of Crystallography as the standard for data archiving and
#  transmission.
#
#  For information on this file format, follow the CIF links at
#  http://www.iucr.org
##########################################################################

data_image0

_cell_length_a                          9.5261
_cell_length_b                          15.77
_cell_length_c                          4.3128
_cell_angle_alpha                       90
_cell_angle_beta                        97.767
_cell_angle_gamma                       90
_symmetry_space_group_name_H-M          'P 1'
_symmetry_int_tables_number             1
loop_
  _symmetry_equiv_pos_as_xyz
         'x, y, z' 
loop_
  _atom_site_label
  _atom_site_occupancy
  _atom_site_fract_x
  _atom_site_fract_y
  _atom_site_fract_z
  _atom_site_thermal_displace_type
  _atom_site_B_iso_or_equiv
  _atom_site_type_symbol
  _atom_site_charge
         Ba1       1.0000    0.00000   0.00000   0.50000   Biso      1.000     Ba          1.483451  
         Ba2       1.0000    0.50000   0.50000   0.50000   Biso      1.000     Ba          1.48345   
         C1        1.0000    0.75850   0.30580   0.72070   Biso      1.000     C          0.5439609999999999  
         C2        1.0000    0.75850   0.69420   0.72070   Biso      1.000     C          0.5439609999999999  
         C3        1.0000    0.45470   0.18250   0.09450   Biso      1.000     C          0.27531700000000003           
         C4        1.0000    0.25850   0.19420   0.72070   Biso      1.000     C          0.5439609999999999  
         C5        1.0000    0.27400   0.28270   0.73540   Biso      1.000     C          -0.5180140000000001           
         C6        1.0000    0.38280   0.32120   0.93460   Biso      1.000     C          0.550145  
         C7        1.0000    0.95470   0.68250   0.09450   Biso      1.000     C          0.27531700000000003           
         C8        1.0000    0.95470   0.31750   0.09450   Biso      1.000     C          0.27531700000000003           
         C9        1.0000    0.88280   0.82120   0.93460   Biso      1.000     C          0.550145  
         C10       1.0000    0.77400   0.21730   0.73540   Biso      1.000     C          -0.5180140000000001           
         C11       1.0000    0.88280   0.17880   0.93460   Biso      1.000     C          0.550145  
         C12       1.0000    0.77400   0.78270   0.73540   Biso      1.000     C          -0.5180140000000001           
         C13       1.0000    0.45470   0.81750   0.09450   Biso      1.000     C          0.27531700000000003           
         C14       1.0000    0.25850   0.80580   0.72070   Biso      1.000     C          0.5439609999999999  
         C15       1.0000    0.27400   0.71730   0.73540   Biso      1.000     C          -0.5180140000000001           
         C16       1.0000    0.38280   0.67880   0.93460   Biso      1.000     C          0.550145  
         H1        1.0000    0.24600   0.04400   0.06200   Biso      1.000     H          0.42448400000000003           
         H2        1.0000    0.03600   0.78500   0.26100   Biso      1.000     H          0.297034  
         H3        1.0000    0.24600   0.95600   0.06200   Biso      1.000     H          0.42448500000000006           
         H4        1.0000    0.70990   0.81650   0.60890   Biso      1.000     H          0.166736  
         H5        1.0000    0.51830   0.14860   0.22210   Biso      1.000     H          0.080375  
         H6        1.0000    0.74600   0.54400   0.06200   Biso      1.000     H          0.42448400000000003           
         H7        1.0000    0.20990   0.31650   0.60890   Biso      1.000     H          0.166736  
         H8        1.0000    0.53600   0.71500   0.26100   Biso      1.000     H          0.297034  
         H9        1.0000    0.01830   0.64860   0.22210   Biso      1.000     H          0.080375  
         H10       1.0000    0.53600   0.28500   0.26100   Biso      1.000     H          0.297034  
         H11       1.0000    0.74600   0.45600   0.06200   Biso      1.000     H          0.42448500000000006           
         H12       1.0000    0.01830   0.35140   0.22210   Biso      1.000     H          0.080375  
         H13       1.0000    0.20990   0.68350   0.60890   Biso      1.000     H          0.166736  
         H14       1.0000    0.70990   0.18350   0.60890   Biso      1.000     H          0.166736  
         H15       1.0000    0.51830   0.85140   0.22210   Biso      1.000     H          0.080375  
         H16       1.0000    0.03600   0.21500   0.26100   Biso      1.000     H          0.297034  
         N1        1.0000    0.35580   0.14440   0.90860   Biso      1.000     N          -0.457945           
         N2        1.0000    0.35580   0.85560   0.90860   Biso      1.000     N          -0.457945           
         N3        1.0000    0.47220   0.73370   0.11710   Biso      1.000     N          -0.359511           
         N4        1.0000    0.85580   0.35560   0.90860   Biso      1.000     N          -0.457945           
         N5        1.0000    0.97220   0.76630   0.11710   Biso      1.000     N          -0.359511           
         N6        1.0000    0.97220   0.23370   0.11710   Biso      1.000     N          -0.359511           
         N7        1.0000    0.85580   0.64440   0.90860   Biso      1.000     N          -0.457945           
         N8        1.0000    0.47220   0.26630   0.11710   Biso      1.000     N          -0.359511           
         O1        1.0000    0.69450   0.50000   0.07030   Biso      1.000     O          -0.922875           
         O2        1.0000    0.40740   0.60000   0.96710   Biso      1.000     O          -0.6888569999999999           
         O3        1.0000    0.16050   0.15530   0.54850   Biso      1.000     O          -0.594014           
         O4        1.0000    0.90740   0.90000   0.96710   Biso      1.000     O          -0.6888569999999999           
         O5        1.0000    0.40740   0.40000   0.96710   Biso      1.000     O          -0.6888569999999999           
         O6        1.0000    0.66050   0.34470   0.54850   Biso      1.000     O          -0.594014           
         O7        1.0000    0.90740   0.10000   0.96710   Biso      1.000     O          -0.6888569999999999           
         O8        1.0000    0.16050   0.84470   0.54850   Biso      1.000     O          -0.594014           
         O9        1.0000    0.66050   0.65530   0.54850   Biso      1.000     O          -0.594014           
         O10       1.0000    0.19450   0.00000   0.07030   Biso      1.000     O          -0.922875 