
##########################################################################
#               Crystallographic Information Format file
#               Produced by PyCifRW module
#
#  This is a CIF file.  CIF has been adopted by the International
#  Union of Crystallography as the standard for data archiving and
#  transmission.
#
#  For information on this file format, follow the CIF links at
#  http://www.iucr.org
##########################################################################

data_image0

_cell_length_a                          5.5673
_cell_length_b                          11.8214
_cell_length_c                          22.7603
_cell_angle_alpha                       100.356
_cell_angle_beta                        90
_cell_angle_gamma                       90
_symmetry_space_group_name_H-M          'P 1'
_symmetry_int_tables_number             1
loop_
  _symmetry_equiv_pos_as_xyz
         'x, y, z' 
loop_
  _atom_site_label
  _atom_site_occupancy
  _atom_site_fract_x
  _atom_site_fract_y
  _atom_site_fract_z
  _atom_site_thermal_displace_type
  _atom_site_B_iso_or_equiv
  _atom_site_type_symbol
  _atom_site_charge
         C1        1.0000    0.12440   0.31276   0.79975   Biso      1.000     C          -0.101291           
         C2        1.0000    0.29170   0.40018   0.80006   Biso      1.000     C          -0.015029           
         C3        1.0000    0.56100   0.20345   0.00695   Biso      1.000     C          -0.102325           
         C4        1.0000    0.50710   0.39738   0.83040   Biso      1.000     C          -0.096943           
         C5        1.0000    0.17280   0.22051   0.82810   Biso      1.000     C          -0.090237           
         C6        1.0000    0.16870   0.11656   0.98920   Biso      1.000     C          -0.099885           
         C7        1.0000    0.29270   0.19872   0.08931   Biso      1.000     C          -0.014097           
         C8        1.0000    0.74140   0.00454   0.73489   Biso      1.000     C          0.642327  
         C9        1.0000    0.73930   0.27674   0.34493   Biso      1.000     C          0.626925  
         C10       1.0000    0.89080   0.35506   0.53136   Biso      1.000     C          -0.076109           
         C11       1.0000    0.88960   0.28106   0.64219   Biso      1.000     C          -0.084419           
         C12       1.0000    0.05670   0.19296   0.63996   Biso      1.000     C          -0.104296           
         C13       1.0000    0.12040   0.14454   0.04979   Biso      1.000     C          -0.092426           
         C14       1.0000    0.01140   0.27025   0.43228   Biso      1.000     C          -0.091359           
         C15       1.0000    0.66870   0.38344   0.51080   Biso      1.000     C          -0.099886           
         C16       1.0000    0.67280   0.27949   0.67190   Biso      1.000     C          -0.090236           
         C17       1.0000    0.62440   0.18724   0.70025   Biso      1.000     C          -0.101291           
         C18       1.0000    0.00710   0.10262   0.66960   Biso      1.000     C          -0.09694  
         C19       1.0000    0.06100   0.29655   0.49305   Biso      1.000     C          -0.102322           
         C20       1.0000    0.79170   0.09982   0.69994   Biso      1.000     C          -0.015029           
         C21       1.0000    0.62040   0.35546   0.45021   Biso      1.000     C          -0.092425           
         C22       1.0000    0.24140   0.49546   0.76511   Biso      1.000     C          0.642327  
         C23       1.0000    0.23930   0.22326   0.15507   Biso      1.000     C          0.626925  
         C24       1.0000    0.39080   0.14494   0.96864   Biso      1.000     C          -0.076107           
         C25       1.0000    0.38960   0.21894   0.85781   Biso      1.000     C          -0.084418           
         C26       1.0000    0.79270   0.30128   0.41069   Biso      1.000     C          -0.014097           
         C27       1.0000    0.25860   0.99546   0.26511   Biso      1.000     C          0.642327  
         C28       1.0000    0.26070   0.72326   0.65507   Biso      1.000     C          0.626925  
         C29       1.0000    0.10920   0.64494   0.46864   Biso      1.000     C          -0.076109           
         C30       1.0000    0.87960   0.85546   0.95021   Biso      1.000     C          -0.092428           
         C31       1.0000    0.70830   0.59982   0.19994   Biso      1.000     C          -0.015029           
         C32       1.0000    0.43900   0.79655   0.99305   Biso      1.000     C          -0.102325           
         C33       1.0000    0.49290   0.60262   0.16960   Biso      1.000     C          -0.096943           
         C34       1.0000    0.87560   0.68724   0.20025   Biso      1.000     C          -0.101291           
         C35       1.0000    0.82720   0.77949   0.17190   Biso      1.000     C          -0.090237           
         C36       1.0000    0.83130   0.88344   0.01080   Biso      1.000     C          -0.099883           
         C37       1.0000    0.70730   0.80128   0.91069   Biso      1.000     C          -0.014097           
         C38       1.0000    0.48860   0.77025   0.93228   Biso      1.000     C          -0.091357           
         C39       1.0000    0.44330   0.69296   0.13996   Biso      1.000     C          -0.104295           
         C40       1.0000    0.61040   0.78106   0.14219   Biso      1.000     C          -0.084417           
         C41       1.0000    0.60920   0.85506   0.03136   Biso      1.000     C          -0.076107           
         C42       1.0000    0.76070   0.77674   0.84493   Biso      1.000     C          0.626925  
         C43       1.0000    0.75860   0.50454   0.23489   Biso      1.000     C          0.642327  
         C44       1.0000    0.37960   0.64454   0.54979   Biso      1.000     C          -0.092428           
         C45       1.0000    0.20830   0.90018   0.30006   Biso      1.000     C          -0.015029           
         C46       1.0000    0.93900   0.70345   0.50695   Biso      1.000     C          -0.102323           
         C47       1.0000    0.99290   0.89738   0.33040   Biso      1.000     C          -0.096943           
         C48       1.0000    0.37560   0.81276   0.29975   Biso      1.000     C          -0.101291           
         C49       1.0000    0.32720   0.72051   0.32810   Biso      1.000     C          -0.090237           
         C50       1.0000    0.33130   0.61656   0.48920   Biso      1.000     C          -0.099883           
         C51       1.0000    0.20730   0.69872   0.58931   Biso      1.000     C          -0.014097           
         C52       1.0000    0.98860   0.72975   0.56772   Biso      1.000     C          -0.091358           
         C53       1.0000    0.94330   0.80704   0.36004   Biso      1.000     C          -0.104295           
         C54       1.0000    0.11040   0.71894   0.35781   Biso      1.000     C          -0.084417           
         C55       1.0000    0.55670   0.30704   0.86004   Biso      1.000     C          -0.104293           
         C56       1.0000    0.51140   0.22975   0.06772   Biso      1.000     C          -0.091357           
         Ca1       1.0000    0.75585   0.63682   0.72287   Biso      1.000     Ca          1.449093  
         Ca2       1.0000    0.25585   0.86318   0.77713   Biso      1.000     Ca          1.449093  
         Ca3       1.0000    0.24415   0.36318   0.27713   Biso      1.000     Ca          1.449093  
         Ca4       1.0000    0.74415   0.13682   0.22287   Biso      1.000     Ca          1.449093  
         H1        1.0000    0.29340   0.77510   0.00780   Biso      1.000     H          0.11613   
         H2        1.0000    0.06230   0.16120   0.82710   Biso      1.000     H          0.12401   
         H3        1.0000    0.05410   0.07940   0.96280   Biso      1.000     H          0.123109  
         H4        1.0000    0.62490   0.26820   0.09390   Biso      1.000     H          0.128133  
         H5        1.0000    0.69960   0.30550   0.88110   Biso      1.000     H          0.115326  
         H6        1.0000    0.47130   0.37310   0.43580   Biso      1.000     H          0.112256  
         H7        1.0000    0.20660   0.27510   0.50780   Biso      1.000     H          0.11613   
         H8        1.0000    0.47830   0.18390   0.71970   Biso      1.000     H          0.107884  
         H9        1.0000    0.97830   0.31610   0.78030   Biso      1.000     H          0.107884  
         H10       1.0000    0.56230   0.33880   0.67290   Biso      1.000     H          0.12401   
         H11       1.0000    0.55410   0.42060   0.53720   Biso      1.000     H          0.123109  
         H12       1.0000    0.12490   0.23180   0.40610   Biso      1.000     H          0.128133  
         H13       1.0000    0.02870   0.87310   0.93580   Biso      1.000     H          0.112256  
         H14       1.0000    0.11860   0.04390   0.66910   Biso      1.000     H          0.124344  
         H15       1.0000    0.61860   0.45610   0.83090   Biso      1.000     H          0.124344  
         H16       1.0000    0.19960   0.19450   0.61890   Biso      1.000     H          0.115326  
         H17       1.0000    0.97130   0.12690   0.06420   Biso      1.000     H          0.112256  
         H18       1.0000    0.38140   0.54390   0.16910   Biso      1.000     H          0.124344  
         H19       1.0000    0.02170   0.68390   0.21970   Biso      1.000     H          0.107884  
         H20       1.0000    0.93770   0.83880   0.17290   Biso      1.000     H          0.12401   
         H21       1.0000    0.94590   0.92060   0.03720   Biso      1.000     H          0.123109  
         H22       1.0000    0.30040   0.69450   0.11890   Biso      1.000     H          0.115326  
         H23       1.0000    0.52870   0.62690   0.56420   Biso      1.000     H          0.112256  
         H24       1.0000    0.37510   0.73180   0.90610   Biso      1.000     H          0.128133  
         H25       1.0000    0.88140   0.95610   0.33090   Biso      1.000     H          0.124344  
         H26       1.0000    0.52170   0.81610   0.28030   Biso      1.000     H          0.107884  
         H27       1.0000    0.43770   0.66120   0.32710   Biso      1.000     H          0.12401   
         H28       1.0000    0.44590   0.57940   0.46280   Biso      1.000     H          0.123109  
         H29       1.0000    0.87510   0.76820   0.59390   Biso      1.000     H          0.128133  
         H30       1.0000    0.80040   0.80550   0.38110   Biso      1.000     H          0.115326  
         H31       1.0000    0.79340   0.72490   0.49220   Biso      1.000     H          0.11613   
         H32       1.0000    0.70660   0.22490   0.99220   Biso      1.000     H          0.11613   
         O1        1.0000    0.47430   0.01577   0.25622   Biso      1.000     O          -0.659023           
         O2        1.0000    0.02510   0.23242   0.17168   Biso      1.000     O          -0.637336           
         O3        1.0000    0.19500   0.50690   0.36904   Biso      1.000     O          -0.563563           
         O4        1.0000    0.08480   0.73774   0.69064   Biso      1.000     O          -0.687161           
         O5        1.0000    0.78110   0.58466   0.38824   Biso      1.000     O          -0.502659           
         O6        1.0000    0.97430   0.48423   0.24378   Biso      1.000     O          -0.659023           
         O7        1.0000    0.47490   0.73242   0.67168   Biso      1.000     O          -0.637336           
         O8        1.0000    0.69500   0.99310   0.13096   Biso      1.000     O          -0.563563           
         O9        1.0000    0.58480   0.76226   0.80936   Biso      1.000     O          -0.687161           
         O10       1.0000    0.28110   0.91534   0.11176   Biso      1.000     O          -0.502659           
         O11       1.0000    0.41910   0.54305   0.74715   Biso      1.000     O          -0.642653           
         O12       1.0000    0.08090   0.04305   0.24715   Biso      1.000     O          -0.642653           
         O13       1.0000    0.02570   0.51577   0.75622   Biso      1.000     O          -0.659023           
         O14       1.0000    0.91520   0.26226   0.30936   Biso      1.000     O          -0.687161           
         O15       1.0000    0.41520   0.23774   0.19064   Biso      1.000     O          -0.687161           
         O16       1.0000    0.30500   0.00690   0.86904   Biso      1.000     O          -0.563563           
         O17       1.0000    0.52510   0.26758   0.32832   Biso      1.000     O          -0.637336           
         O18       1.0000    0.91910   0.95695   0.75285   Biso      1.000     O          -0.642653           
         O19       1.0000    0.52570   0.98423   0.74378   Biso      1.000     O          -0.659023           
         O20       1.0000    0.21890   0.41534   0.61176   Biso      1.000     O          -0.502659           
         O21       1.0000    0.80500   0.49310   0.63096   Biso      1.000     O          -0.563563           
         O22       1.0000    0.58090   0.45695   0.25285   Biso      1.000     O          -0.642653           
         O23       1.0000    0.71890   0.08466   0.88824   Biso      1.000     O          -0.502659           
         O24       1.0000    0.97490   0.76758   0.82832   Biso      1.000     O          -0.637336           
         S1        1.0000    0.53637   0.89835   0.10768   Biso      1.000     S          0.991267  
         S2        1.0000    0.03637   0.60165   0.39232   Biso      1.000     S          0.991268  
         S3        1.0000    0.46363   0.10165   0.89232   Biso      1.000     S          0.991268  
         S4        1.0000    0.96363   0.39835   0.60768   Biso      1.000     S          0.991268 