
##########################################################################
#               Crystallographic Information Format file
#               Produced by PyCifRW module
#
#  This is a CIF file.  CIF has been adopted by the International
#  Union of Crystallography as the standard for data archiving and
#  transmission.
#
#  For information on this file format, follow the CIF links at
#  http://www.iucr.org
##########################################################################

data_image0

_cell_length_a                          6.4463
_cell_length_b                          10.9728
_cell_length_c                          16.0996
_cell_angle_alpha                       90
_cell_angle_beta                        99.775
_cell_angle_gamma                       90
_symmetry_space_group_name_H-M          'P 1'
_symmetry_int_tables_number             1
loop_
  _symmetry_equiv_pos_as_xyz
         'x, y, z' 
loop_
  _atom_site_label
  _atom_site_occupancy
  _atom_site_fract_x
  _atom_site_fract_y
  _atom_site_fract_z
  _atom_site_thermal_displace_type
  _atom_site_B_iso_or_equiv
  _atom_site_type_symbol
  _atom_site_charge
         C1        1.0000    0.17140   0.19700   0.17700   Biso      1.000     C          0.098491  
         C2        1.0000    0.79080   0.22920   0.73610   Biso      1.000     C          -0.12498699999999999          
         C3        1.0000    0.67140   0.30300   0.67700   Biso      1.000     C          0.09849400000000001           
         C4        1.0000    0.48810   0.18970   0.79740   Biso      1.000     C          -0.052753999999999995         
         C5        1.0000    0.73070   0.86730   0.89030   Biso      1.000     C          0.59619   
         C6        1.0000    0.12140   0.62460   0.63930   Biso      1.000     C          0.6059760000000001  
         C7        1.0000    0.80010   0.67300   0.70290   Biso      1.000     C          -0.055896           
         C8        1.0000    0.12170   0.76240   0.76500   Biso      1.000     C          0.070512  
         C9        1.0000    0.70920   0.72920   0.76390   Biso      1.000     C          -0.124982           
         C10       1.0000    0.82860   0.80300   0.82300   Biso      1.000     C          0.09849400000000001           
         C11       1.0000    0.01190   0.68970   0.70260   Biso      1.000     C          -0.052749000000000004         
         C12       1.0000    0.37860   0.12460   0.86070   Biso      1.000     C          0.6059760000000001  
         C13       1.0000    0.76930   0.36730   0.60970   Biso      1.000     C          0.59619   
         C14       1.0000    0.98810   0.31030   0.29740   Biso      1.000     C          -0.052753999999999995         
         C15       1.0000    0.29080   0.27080   0.23610   Biso      1.000     C          -0.124984           
         C16       1.0000    0.87830   0.23760   0.23500   Biso      1.000     C          0.070512  
         C17       1.0000    0.19990   0.32700   0.29710   Biso      1.000     C          -0.055887           
         C18       1.0000    0.87860   0.37540   0.36070   Biso      1.000     C          0.6059760000000001  
         C19       1.0000    0.26930   0.13270   0.10970   Biso      1.000     C          0.59619   
         C20       1.0000    0.51190   0.81030   0.20260   Biso      1.000     C          -0.052754999999999996         
         C21       1.0000    0.32860   0.69700   0.32300   Biso      1.000     C          0.098491  
         C22       1.0000    0.20920   0.77080   0.26390   Biso      1.000     C          -0.124984           
         C23       1.0000    0.62170   0.73760   0.26500   Biso      1.000     C          0.070512  
         C24       1.0000    0.30010   0.82700   0.20290   Biso      1.000     C          -0.055887           
         C25       1.0000    0.62140   0.87540   0.13930   Biso      1.000     C          0.6059760000000001  
         C26       1.0000    0.23070   0.63270   0.39030   Biso      1.000     C          0.59619   
         C27       1.0000    0.37830   0.26240   0.73500   Biso      1.000     C          0.070512  
         C28       1.0000    0.69990   0.17300   0.79710   Biso      1.000     C          -0.055886           
         Ca1       1.0000    0.24297   0.92848   0.95223   Biso      1.000     Ca          1.3545559999999999  
         Ca2       1.0000    0.74297   0.57152   0.45223   Biso      1.000     Ca          1.3545559999999999  
         Ca3       1.0000    0.75703   0.07152   0.04777   Biso      1.000     Ca          1.3545559999999999  
         Ca4       1.0000    0.25703   0.42848   0.54777   Biso      1.000     Ca          1.3545559999999999  
         H1        1.0000    0.76540   0.72740   0.26620   Biso      1.000     H          0.092169  
         H2        1.0000    0.06690   0.78240   0.26530   Biso      1.000     H          0.123606  
         H3        1.0000    0.28010   0.37570   0.33760   Biso      1.000     H          0.12208499999999999           
         H4        1.0000    0.73460   0.22740   0.23380   Biso      1.000     H          0.092169  
         H5        1.0000    0.43310   0.28240   0.23470   Biso      1.000     H          0.123606  
         H6        1.0000    0.78010   0.12430   0.83760   Biso      1.000     H          0.12208499999999999           
         H7        1.0000    0.23460   0.27260   0.73380   Biso      1.000     H          0.092169  
         H8        1.0000    0.93310   0.21760   0.73470   Biso      1.000     H          0.123606  
         H9        1.0000    0.71990   0.62430   0.66240   Biso      1.000     H          0.12208599999999999           
         H10       1.0000    0.26540   0.77260   0.76620   Biso      1.000     H          0.092169  
         H11       1.0000    0.56690   0.71760   0.76530   Biso      1.000     H          0.123606  
         H12       1.0000    0.21990   0.87570   0.16240   Biso      1.000     H          0.12208499999999999           
         N1        1.0000    0.53370   0.68090   0.32410   Biso      1.000     N          -0.319731           
         N2        1.0000    0.96630   0.18090   0.17590   Biso      1.000     N          -0.319731           
         N3        1.0000    0.03370   0.81910   0.82410   Biso      1.000     N          -0.319731           
         N4        1.0000    0.46630   0.31910   0.67590   Biso      1.000     N          -0.319732           
         O1        1.0000    0.03860   0.64800   0.38799   Biso      1.000     O          -0.5810609999999999           
         O2        1.0000    0.35400   0.56900   0.44263   Biso      1.000     O          -0.663441           
         O3        1.0000    0.98400   0.39950   0.43137   Biso      1.000     O          -0.683146           
         O4        1.0000    0.69180   0.40530   0.33924   Biso      1.000     O          -0.5825819999999999           
         O5        1.0000    0.46140   0.14800   0.11201   Biso      1.000     O          -0.5810609999999999           
         O6        1.0000    0.14600   0.06900   0.05737   Biso      1.000     O          -0.663441           
         O7        1.0000    0.48400   0.10050   0.93137   Biso      1.000     O          -0.683146           
         O8        1.0000    0.19180   0.09470   0.83924   Biso      1.000     O          -0.5825819999999999           
         O9        1.0000    0.64600   0.43100   0.55737   Biso      1.000     O          -0.663441           
         O10       1.0000    0.01600   0.60050   0.56863   Biso      1.000     O          -0.683146           
         O11       1.0000    0.30820   0.59470   0.66076   Biso      1.000     O          -0.5825819999999999           
         O12       1.0000    0.53860   0.85200   0.88799   Biso      1.000     O          -0.5810609999999999           
         O13       1.0000    0.85400   0.93100   0.94263   Biso      1.000     O          -0.663441           
         O14       1.0000    0.80820   0.90530   0.16076   Biso      1.000     O          -0.5825819999999999           
         O15       1.0000    0.96140   0.35200   0.61201   Biso      1.000     O          -0.5810609999999999           
         O16       1.0000    0.51600   0.89950   0.06863   Biso      1.000     O          -0.683146 