
##########################################################################
#               Crystallographic Information Format file
#               Produced by PyCifRW module
#
#  This is a CIF file.  CIF has been adopted by the International
#  Union of Crystallography as the standard for data archiving and
#  transmission.
#
#  For information on this file format, follow the CIF links at
#  http://www.iucr.org
##########################################################################

data_image0

_cell_length_a                          6.4275
_cell_length_b                          10.9764
_cell_length_c                          16.387
_cell_angle_alpha                       90
_cell_angle_beta                        90
_cell_angle_gamma                       99.182
_symmetry_space_group_name_H-M          'P 1'
_symmetry_int_tables_number             1
loop_
  _symmetry_equiv_pos_as_xyz
         'x, y, z' 
loop_
  _atom_site_label
  _atom_site_occupancy
  _atom_site_fract_x
  _atom_site_fract_y
  _atom_site_fract_z
  _atom_site_thermal_displace_type
  _atom_site_B_iso_or_equiv
  _atom_site_type_symbol
  _atom_site_charge
         C1        1.0000    0.60200   0.11520   0.36193   Biso      1.000     C          0.6033149999999999  
         C2        1.0000    0.13260   0.74210   0.26517   Biso      1.000     C          -0.16788499999999998          
         C3        1.0000    0.10200   0.61520   0.13807   Biso      1.000     C          0.6033149999999999  
         C4        1.0000    0.04850   0.80000   0.32904   Biso      1.000     C          0.10809300000000001           
         C5        1.0000    0.78260   0.76400   0.77979   Biso      1.000     C          0.105528  
         C6        1.0000    0.31010   0.63560   0.89571   Biso      1.000     C          0.5954510000000001  
         C7        1.0000    0.49600   0.81930   0.70571   Biso      1.000     C          0.035638  
         C8        1.0000    0.71080   0.82270   0.71362   Biso      1.000     C          -0.154543           
         C9        1.0000    0.36740   0.75790   0.76517   Biso      1.000     C          -0.167884           
         C10       1.0000    0.39800   0.88480   0.63807   Biso      1.000     C          0.6033149999999999  
         C11       1.0000    0.45150   0.70000   0.82904   Biso      1.000     C          0.10809300000000001           
         C12       1.0000    0.18990   0.86440   0.39571   Biso      1.000     C          0.5954510000000001  
         C13       1.0000    0.71740   0.73600   0.27979   Biso      1.000     C          0.105529  
         C14       1.0000    0.54850   0.30000   0.17096   Biso      1.000     C          0.10809300000000001           
         C15       1.0000    0.63260   0.24210   0.23483   Biso      1.000     C          -0.16788499999999998          
         C16       1.0000    0.28920   0.17730   0.28638   Biso      1.000     C          -0.154551           
         C17       1.0000    0.50400   0.18070   0.29429   Biso      1.000     C          0.035644  
         C18       1.0000    0.68990   0.36440   0.10429   Biso      1.000     C          0.5954510000000001  
         C19       1.0000    0.21740   0.23600   0.22021   Biso      1.000     C          0.10553299999999999           
         C20       1.0000    0.95150   0.20000   0.67096   Biso      1.000     C          0.10809300000000001           
         C21       1.0000    0.89800   0.38480   0.86193   Biso      1.000     C          0.6033149999999999  
         C22       1.0000    0.86740   0.25790   0.73483   Biso      1.000     C          -0.16788499999999998          
         C23       1.0000    0.21080   0.32270   0.78638   Biso      1.000     C          -0.154551           
         C24       1.0000    0.99600   0.31930   0.79429   Biso      1.000     C          0.035644  
         C25       1.0000    0.81010   0.13560   0.60429   Biso      1.000     C          0.5954510000000001  
         C26       1.0000    0.28260   0.26400   0.72021   Biso      1.000     C          0.10553299999999999           
         C27       1.0000    0.78920   0.67730   0.21362   Biso      1.000     C          -0.154547           
         C28       1.0000    0.00400   0.68070   0.20571   Biso      1.000     C          0.035643  
         Ca1       1.0000    0.78221   0.58060   0.95785   Biso      1.000     Ca          1.353592  
         Ca2       1.0000    0.28221   0.08060   0.54215   Biso      1.000     Ca          1.353592  
         Ca3       1.0000    0.21779   0.41940   0.04215   Biso      1.000     Ca          1.353592  
         Ca4       1.0000    0.71779   0.91940   0.45785   Biso      1.000     Ca          1.353592  
         H1        1.0000    0.30410   0.36340   0.82460   Biso      1.000     H          0.137738  
         H2        1.0000    0.72230   0.25560   0.73790   Biso      1.000     H          0.128824  
         H3        1.0000    0.07250   0.23200   0.21480   Biso      1.000     H          0.086511  
         H4        1.0000    0.19590   0.13660   0.32460   Biso      1.000     H          0.137738  
         H5        1.0000    0.77770   0.24440   0.23790   Biso      1.000     H          0.128824  
         H6        1.0000    0.57250   0.73200   0.28520   Biso      1.000     H          0.086511  
         H7        1.0000    0.69590   0.63660   0.17540   Biso      1.000     H          0.137738  
         H8        1.0000    0.27770   0.74440   0.26210   Biso      1.000     H          0.128824  
         H9        1.0000    0.92750   0.76800   0.78520   Biso      1.000     H          0.086511  
         H10       1.0000    0.80410   0.86340   0.67540   Biso      1.000     H          0.137737  
         H11       1.0000    0.22230   0.75560   0.76210   Biso      1.000     H          0.128824  
         H12       1.0000    0.42750   0.26800   0.71480   Biso      1.000     H          0.086511  
         N1        1.0000    0.15960   0.20130   0.66290   Biso      1.000     N          -0.325465           
         N2        1.0000    0.34040   0.29870   0.16290   Biso      1.000     N          -0.325465           
         N3        1.0000    0.65960   0.70130   0.83710   Biso      1.000     N          -0.325464           
         N4        1.0000    0.84040   0.79870   0.33710   Biso      1.000     N          -0.325464           
         O1        1.0000    0.99050   0.39932   0.92937   Biso      1.000     O          -0.676231           
         O2        1.0000    0.89470   0.07167   0.55366   Biso      1.000     O          -0.6565489999999999           
         O3        1.0000    0.87610   0.34596   0.10504   Biso      1.000     O          -0.586717           
         O4        1.0000    0.76920   0.07592   0.34683   Biso      1.000     O          -0.5873010000000001           
         O5        1.0000    0.50950   0.10068   0.42937   Biso      1.000     O          -0.676231           
         O6        1.0000    0.60530   0.42833   0.05366   Biso      1.000     O          -0.6565489999999999           
         O7        1.0000    0.37610   0.84596   0.39496   Biso      1.000     O          -0.586717           
         O8        1.0000    0.26920   0.57592   0.15317   Biso      1.000     O          -0.5873010000000001           
         O9        1.0000    0.10530   0.92833   0.44634   Biso      1.000     O          -0.6565489999999999           
         O10       1.0000    0.12390   0.65404   0.89496   Biso      1.000     O          -0.586717           
         O11       1.0000    0.23080   0.92408   0.65317   Biso      1.000     O          -0.5873010000000001           
         O12       1.0000    0.49050   0.89932   0.57063   Biso      1.000     O          -0.676231           
         O13       1.0000    0.39470   0.57167   0.94634   Biso      1.000     O          -0.6565489999999999           
         O14       1.0000    0.73080   0.42408   0.84683   Biso      1.000     O          -0.5873010000000001           
         O15       1.0000    0.00950   0.60068   0.07063   Biso      1.000     O          -0.676231           
         O16       1.0000    0.62390   0.15404   0.60504   Biso      1.000     O          -0.586717 