
##########################################################################
#               Crystallographic Information Format file
#               Produced by PyCifRW module
#
#  This is a CIF file.  CIF has been adopted by the International
#  Union of Crystallography as the standard for data archiving and
#  transmission.
#
#  For information on this file format, follow the CIF links at
#  http://www.iucr.org
##########################################################################

data_image0

_cell_length_a                          12.0501
_cell_length_b                          13.9638
_cell_length_c                          14.7073
_cell_angle_alpha                       98.257
_cell_angle_beta                        111.863
_cell_angle_gamma                       107.785
_symmetry_space_group_name_H-M          'P 1'
_symmetry_int_tables_number             1
loop_
  _symmetry_equiv_pos_as_xyz
         'x, y, z' 
loop_
  _atom_site_label
  _atom_site_occupancy
  _atom_site_fract_x
  _atom_site_fract_y
  _atom_site_fract_z
  _atom_site_thermal_displace_type
  _atom_site_B_iso_or_equiv
  _atom_site_type_symbol
  _atom_site_charge
         C1        1.0000    0.00130   0.21186   0.31329   Biso      1.000     C          0.065604  
         C2        1.0000    0.50670   0.73801   0.78634   Biso      1.000     C          -0.09439  
         C3        1.0000    0.12223   0.86161   0.75603   Biso      1.000     C          -0.081301           
         C4        1.0000    0.10150   0.77480   0.88160   Biso      1.000     C          -0.077851           
         C5        1.0000    0.99870   0.78814   0.68671   Biso      1.000     C          0.065604  
         C6        1.0000    0.38530   0.64082   0.25606   Biso      1.000     C          -0.083386           
         C7        1.0000    0.50410   0.65253   0.33042   Biso      1.000     C          -0.076328           
         C8        1.0000    0.61480   0.73760   0.35077   Biso      1.000     C          -0.07832599999999999          
         C9        1.0000    0.98070   0.70418   0.80618   Biso      1.000     C          0.073849  
         C10       1.0000    0.17290   0.85530   0.85559   Biso      1.000     C          -0.071625           
         C11       1.0000    0.74460   0.75566   0.43424   Biso      1.000     C          0.674659  
         C12       1.0000    0.53130   0.63339   0.64668   Biso      1.000     C          0.604186  
         C13       1.0000    0.44820   0.74227   0.85135   Biso      1.000     C          -0.07749  
         C14       1.0000    0.46580   0.64348   0.71430   Biso      1.000     C          -0.071586           
         C15       1.0000    0.60150   0.80923   0.29502   Biso      1.000     C          0.073116  
         C16       1.0000    0.38110   0.71512   0.20325   Biso      1.000     C          0.07267699999999999           
         C17       1.0000    0.19680   0.94164   0.71908   Biso      1.000     C          0.668177  
         C18       1.0000    0.49230   0.84198   0.93334   Biso      1.000     C          0.645975  
         C19       1.0000    0.35050   0.65170   0.84040   Biso      1.000     C          0.058484  
         C20       1.0000    0.36640   0.55710   0.70970   Biso      1.000     C          0.043793  
         C21       1.0000    0.87777   0.13839   0.24397   Biso      1.000     C          -0.081301           
         C22       1.0000    0.89850   0.22520   0.11840   Biso      1.000     C          -0.077851           
         C23       1.0000    0.63360   0.44290   0.29030   Biso      1.000     C          0.043791000000000004          
         C24       1.0000    0.64950   0.34830   0.15960   Biso      1.000     C          0.05848099999999999           
         C25       1.0000    0.49330   0.26199   0.21366   Biso      1.000     C          -0.094391           
         C26       1.0000    0.85000   0.23870   0.01189   Biso      1.000     C          0.672222  
         C27       1.0000    0.73730   0.44818   0.76423   Biso      1.000     C          0.677963  
         C28       1.0000    0.50770   0.15802   0.06666   Biso      1.000     C          0.645975  
         C29       1.0000    0.80320   0.05836   0.28092   Biso      1.000     C          0.668177  
         C30       1.0000    0.61890   0.28488   0.79675   Biso      1.000     C          0.072672  
         C31       1.0000    0.26270   0.55182   0.23577   Biso      1.000     C          0.677964  
         C32       1.0000    0.39850   0.19077   0.70498   Biso      1.000     C          0.073117  
         C33       1.0000    0.55180   0.25773   0.14865   Biso      1.000     C          -0.077488           
         C34       1.0000    0.46870   0.36661   0.35332   Biso      1.000     C          0.604186  
         C35       1.0000    0.25540   0.24434   0.56576   Biso      1.000     C          0.674659  
         C36       1.0000    0.82710   0.14470   0.14441   Biso      1.000     C          -0.071625           
         C37       1.0000    0.01930   0.29582   0.19382   Biso      1.000     C          0.073849  
         C38       1.0000    0.38520   0.26240   0.64923   Biso      1.000     C          -0.078327           
         C39       1.0000    0.49590   0.34747   0.66958   Biso      1.000     C          -0.07633  
         C40       1.0000    0.61470   0.35918   0.74394   Biso      1.000     C          -0.083379           
         C41       1.0000    0.53420   0.35652   0.28570   Biso      1.000     C          -0.071585           
         C42       1.0000    0.15000   0.76130   0.98811   Biso      1.000     C          0.672222  
         Ca1       1.0000    0.70080   0.58044   0.57721   Biso      1.000     Ca          1.376751  
         Ca2       1.0000    0.46179   0.93829   0.13771   Biso      1.000     Ca          1.373702  
         Ca3       1.0000    0.29920   0.41956   0.42279   Biso      1.000     Ca          1.376751  
         Ca4       1.0000    0.53821   0.06171   0.86229   Biso      1.000     Ca          1.373702  
         Ca5       1.0000    0.00000   0.00000   0.50000   Biso      1.000     Ca          1.5542989999999999  
         Ca6       1.0000    0.00000   0.50000   0.00000   Biso      1.000     Ca          1.5573290000000002  
         H1        1.0000    0.68880   0.34510   0.11610   Biso      1.000     H          0.090906  
         H2        1.0000    0.96350   0.79360   0.62060   Biso      1.000     H          0.086976  
         H3        1.0000    0.50950   0.60340   0.36660   Biso      1.000     H          0.114248  
         H4        1.0000    0.93340   0.64950   0.82320   Biso      1.000     H          0.087023  
         H5        1.0000    0.25390   0.90450   0.90430   Biso      1.000     H          0.11950799999999999           
         H6        1.0000    0.67540   0.86690   0.30860   Biso      1.000     H          0.088278  
         H7        1.0000    0.30150   0.70670   0.15230   Biso      1.000     H          0.087786  
         H8        1.0000    0.31120   0.65490   0.88390   Biso      1.000     H          0.090906  
         H9        1.0000    0.33850   0.49380   0.66100   Biso      1.000     H          0.08378   
         H10       1.0000    0.03650   0.20640   0.37940   Biso      1.000     H          0.086976  
         H11       1.0000    0.49050   0.39660   0.63340   Biso      1.000     H          0.114248  
         H12       1.0000    0.06660   0.35050   0.17680   Biso      1.000     H          0.087023  
         H13       1.0000    0.74610   0.09550   0.09570   Biso      1.000     H          0.11950799999999999           
         H14       1.0000    0.32460   0.13310   0.69140   Biso      1.000     H          0.088278  
         H15       1.0000    0.69850   0.29330   0.84770   Biso      1.000     H          0.087786  
         H16       1.0000    0.42770   0.20230   0.20890   Biso      1.000     H          0.126283  
         H17       1.0000    0.57230   0.79770   0.79110   Biso      1.000     H          0.126283  
         H18       1.0000    0.66150   0.50620   0.33900   Biso      1.000     H          0.08378   
         N1        1.0000    0.51291   0.20116   0.77743   Biso      1.000     N          -0.304183           
         N2        1.0000    0.69140   0.44031   0.22870   Biso      1.000     N          -0.280341           
         N3        1.0000    0.07174   0.28987   0.28969   Biso      1.000     N          -0.298186           
         N4        1.0000    0.48709   0.79884   0.22257   Biso      1.000     N          -0.304184           
         N5        1.0000    0.92826   0.71013   0.71031   Biso      1.000     N          -0.298186           
         N6        1.0000    0.30860   0.55969   0.77130   Biso      1.000     N          -0.280342           
         O1        1.0000    0.44170   0.07409   0.07407   Biso      1.000     O          -0.658593           
         O2        1.0000    0.90617   0.32507   0.00226   Biso      1.000     O          -0.704069           
         O3        1.0000    0.15996   0.16496   0.54918   Biso      1.000     O          -0.696195           
         O4        1.0000    0.72685   0.50314   0.70457   Biso      1.000     O          -0.634267           
         O5        1.0000    0.84015   0.46057   0.83689   Biso      1.000     O          -0.695983           
         O6        1.0000    0.86422   0.04385   0.36380   Biso      1.000     O          -0.7062890000000001           
         O7        1.0000    0.68360   0.01322   0.22644   Biso      1.000     O          -0.638335           
         O8        1.0000    0.52385   0.44612   0.43037   Biso      1.000     O          -0.698242           
         O9        1.0000    0.25240   0.31158   0.51834   Biso      1.000     O          -0.63254  
         O10       1.0000    0.75820   0.16187   0.94092   Biso      1.000     O          -0.635649           
         O11       1.0000    0.45970   0.83200   0.00358   Biso      1.000     O          -0.634579           
         O12       1.0000    0.64040   0.70139   0.67092   Biso      1.000     O          -0.5920270000000001           
         O13       1.0000    0.09383   0.67493   0.99774   Biso      1.000     O          -0.704069           
         O14       1.0000    0.84004   0.83504   0.45082   Biso      1.000     O          -0.696195           
         O15       1.0000    0.27315   0.49686   0.29543   Biso      1.000     O          -0.634267           
         O16       1.0000    0.15985   0.53943   0.16311   Biso      1.000     O          -0.695983           
         O17       1.0000    0.13578   0.95615   0.63620   Biso      1.000     O          -0.7062890000000001           
         O18       1.0000    0.31640   0.98678   0.77356   Biso      1.000     O          -0.638336           
         O19       1.0000    0.47615   0.55388   0.56963   Biso      1.000     O          -0.698242           
         O20       1.0000    0.74760   0.68842   0.48166   Biso      1.000     O          -0.63254  
         O21       1.0000    0.24180   0.83813   0.05908   Biso      1.000     O          -0.635649           
         O22       1.0000    0.35960   0.29861   0.32908   Biso      1.000     O          -0.5920270000000001           
         O23       1.0000    0.55830   0.92591   0.92593   Biso      1.000     O          -0.658592           
         O24       1.0000    0.54030   0.16800   0.99642   Biso      1.000     O          -0.634579 