
##########################################################################
#               Crystallographic Information Format file
#               Produced by PyCifRW module
#
#  This is a CIF file.  CIF has been adopted by the International
#  Union of Crystallography as the standard for data archiving and
#  transmission.
#
#  For information on this file format, follow the CIF links at
#  http://www.iucr.org
##########################################################################

data_image0

_cell_length_a                          8.548
_cell_length_b                          8.695
_cell_length_c                          11.3792
_cell_angle_alpha                       90
_cell_angle_beta                        112.061
_cell_angle_gamma                       90
_symmetry_space_group_name_H-M          'P 1'
_symmetry_int_tables_number             1
loop_
  _symmetry_equiv_pos_as_xyz
         'x, y, z' 
loop_
  _atom_site_label
  _atom_site_occupancy
  _atom_site_fract_x
  _atom_site_fract_y
  _atom_site_fract_z
  _atom_site_thermal_displace_type
  _atom_site_B_iso_or_equiv
  _atom_site_type_symbol
  _atom_site_charge
         C1        1.0000    0.10740   0.70580   0.21480   Biso      1.000     C          -0.002288           
         C2        1.0000    0.92580   0.82710   0.85160   Biso      1.000     C          -0.05865700000000001          
         C3        1.0000    0.10740   0.29420   0.21480   Biso      1.000     C          -0.002288           
         C4        1.0000    0.92580   0.17290   0.85160   Biso      1.000     C          -0.05865700000000001          
         C5        1.0000    0.43090   0.50000   0.44980   Biso      1.000     C          0.020059  
         C6        1.0000    0.01890   0.50000   0.44980   Biso      1.000     C          0.019043  
         Cd1       1.0000    0.00000   0.00000   0.00000   Biso      1.000     Cd          0.820818  
         Cd2       1.0000    0.16480   0.50000   0.32960   Biso      1.000     Cd          0.393938  
         Cd3       1.0000    0.83250   0.50000   0.66500   Biso      1.000     Cd          0.994031  
         N1        1.0000    0.07480   0.81050   0.14960   Biso      1.000     N          -0.34837199999999996          
         N2        1.0000    0.89180   0.72550   0.78360   Biso      1.000     N          -0.346748           
         N3        1.0000    0.07480   0.18950   0.14960   Biso      1.000     N          -0.34837199999999996          
         N4        1.0000    0.89180   0.27450   0.78360   Biso      1.000     N          -0.346748           
         N5        1.0000    0.56560   0.50000   0.52360   Biso      1.000     N          -0.368325           
         N6        1.0000    0.95800   0.50000   0.52360   Biso      1.000     N          -0.36743400000000004 