
##########################################################################
#               Crystallographic Information Format file
#               Produced by PyCifRW module
#
#  This is a CIF file.  CIF has been adopted by the International
#  Union of Crystallography as the standard for data archiving and
#  transmission.
#
#  For information on this file format, follow the CIF links at
#  http://www.iucr.org
##########################################################################

data_image0

_cell_length_a                          8.548
_cell_length_b                          21.092
_cell_length_c                          8.695
_cell_angle_alpha                       90
_cell_angle_beta                        90
_cell_angle_gamma                       90
_symmetry_space_group_name_H-M          'P 1'
_symmetry_int_tables_number             1
loop_
  _symmetry_equiv_pos_as_xyz
         'x, y, z' 
loop_
  _atom_site_label
  _atom_site_occupancy
  _atom_site_fract_x
  _atom_site_fract_y
  _atom_site_fract_z
  _atom_site_thermal_displace_type
  _atom_site_B_iso_or_equiv
  _atom_site_type_symbol
  _atom_site_charge
         Cd1       1.0000    0.00000   0.00000   0.00000   Biso      1.000     Cd          1.062158  
         Cd2       1.0000    0.50000   0.50000   0.00000   Biso      1.000     Cd          1.062158  
         Cd3       1.0000    0.00004   0.83393   0.50000   Biso      1.000     Cd          0.564794  
         Cd4       1.0000    0.49996   0.33393   0.50000   Biso      1.000     Cd          0.564794  
         Cd5       1.0000    0.99996   0.16607   0.50000   Biso      1.000     Cd          0.564793  
         Cd6       1.0000    0.50004   0.66607   0.50000   Biso      1.000     Cd          0.564793  
         N1        1.0000    0.99999   0.92480   0.18483   Biso      1.000     N          -0.37102  
         N2        1.0000    0.50001   0.42480   0.18483   Biso      1.000     N          -0.370992           
         N3        1.0000    0.00001   0.07520   0.18483   Biso      1.000     N          -0.371019           
         N4        1.0000    0.49999   0.57520   0.18483   Biso      1.000     N          -0.370992           
         N5        1.0000    0.99999   0.92480   0.81517   Biso      1.000     N          -0.370992           
         N6        1.0000    0.50001   0.42480   0.81517   Biso      1.000     N          -0.371019           
         N7        1.0000    0.00001   0.07520   0.81517   Biso      1.000     N          -0.370992           
         N8        1.0000    0.49999   0.57520   0.81517   Biso      1.000     N          -0.371019           
         N9        1.0000    0.28634   0.27299   0.50000   Biso      1.000     N          -0.297938           
         N10       1.0000    0.71366   0.72701   0.50000   Biso      1.000     N          -0.297938           
         N11       1.0000    0.21366   0.77299   0.50000   Biso      1.000     N          -0.297938           
         N12       1.0000    0.78634   0.22701   0.50000   Biso      1.000     N          -0.297937           
         C1        1.0000    0.00003   0.89078   0.29211   Biso      1.000     C          -0.001713           
         C2        1.0000    0.49997   0.39078   0.29211   Biso      1.000     C          -0.00182  
         C3        1.0000    0.99997   0.10922   0.29211   Biso      1.000     C          -0.001713           
         C4        1.0000    0.50003   0.60922   0.29211   Biso      1.000     C          -0.00182  
         C5        1.0000    0.00003   0.89078   0.70789   Biso      1.000     C          -0.00182  
         C6        1.0000    0.49997   0.39078   0.70789   Biso      1.000     C          -0.001712           
         C7        1.0000    0.99997   0.10922   0.70789   Biso      1.000     C          -0.00182  
         C8        1.0000    0.50003   0.60922   0.70789   Biso      1.000     C          -0.001713           
         C9        1.0000    0.82328   0.76025   0.50000   Biso      1.000     C          -0.052391           
         C10       1.0000    0.17672   0.23975   0.50000   Biso      1.000     C          -0.052391           
         C11       1.0000    0.67672   0.26025   0.50000   Biso      1.000     C          -0.052391           
         C12       1.0000    0.32328   0.73975   0.50000   Biso      1.000     C          -0.052391 