
##########################################################################
#               Crystallographic Information Format file
#               Produced by PyCifRW module
#
#  This is a CIF file.  CIF has been adopted by the International
#  Union of Crystallography as the standard for data archiving and
#  transmission.
#
#  For information on this file format, follow the CIF links at
#  http://www.iucr.org
##########################################################################

data_image0

_cell_length_a                          8.694
_cell_length_b                          16.908
_cell_length_c                          21.157
_cell_angle_alpha                       90
_cell_angle_beta                        90
_cell_angle_gamma                       90
_symmetry_space_group_name_H-M          'P 1'
_symmetry_int_tables_number             1
loop_
  _symmetry_equiv_pos_as_xyz
         'x, y, z' 
loop_
  _atom_site_label
  _atom_site_occupancy
  _atom_site_fract_x
  _atom_site_fract_y
  _atom_site_fract_z
  _atom_site_thermal_displace_type
  _atom_site_B_iso_or_equiv
  _atom_site_type_symbol
  _atom_site_charge
         C1        1.0000    0.52170   0.27520   0.51840   Biso      1.000     C          -0.190524           
         C2        1.0000    0.50140   0.47520   0.51830   Biso      1.000     C          -0.015213999999999998         
         C3        1.0000    0.47830   0.77520   0.51840   Biso      1.000     C          -0.187896           
         C4        1.0000    0.30050   0.36780   0.64240   Biso      1.000     C          0.014412999999999999          
         C5        1.0000    0.72020   0.11800   0.14250   Biso      1.000     C          0.00943   
         C6        1.0000    0.72020   0.38200   0.64250   Biso      1.000     C          0.024996  
         C7        1.0000    0.30050   0.13220   0.14240   Biso      1.000     C          -0.005459           
         C8        1.0000    0.52170   0.22480   0.01840   Biso      1.000     C          -0.187886           
         C9        1.0000    0.49860   0.52480   0.01830   Biso      1.000     C          -0.015203999999999999         
         C10       1.0000    0.47830   0.72480   0.01840   Biso      1.000     C          -0.19053499999999998          
         C11       1.0000    0.69950   0.63220   0.14240   Biso      1.000     C          0.01441   
         C12       1.0000    0.72020   0.38200   0.85750   Biso      1.000     C          0.009434999999999999          
         C13       1.0000    0.27980   0.61800   0.14250   Biso      1.000     C          0.024988  
         C14       1.0000    0.69950   0.86780   0.64240   Biso      1.000     C          -0.005461           
         C15       1.0000    0.52170   0.27520   0.98160   Biso      1.000     C          -0.18770699999999998          
         C16       1.0000    0.30050   0.36780   0.85760   Biso      1.000     C          -0.005452           
         C17       1.0000    0.47830   0.77520   0.98160   Biso      1.000     C          -0.190394           
         C18       1.0000    0.72020   0.11800   0.35750   Biso      1.000     C          0.024975  
         C19       1.0000    0.30050   0.13220   0.35760   Biso      1.000     C          0.01441   
         C20       1.0000    0.52170   0.22480   0.48160   Biso      1.000     C          -0.190404           
         C21       1.0000    0.49860   0.97520   0.98170   Biso      1.000     C          -0.015184           
         C22       1.0000    0.47830   0.72480   0.48160   Biso      1.000     C          -0.187704           
         C23       1.0000    0.50140   0.02480   0.48170   Biso      1.000     C          -0.015172           
         C24       1.0000    0.27980   0.88200   0.85750   Biso      1.000     C          0.024982  
         C25       1.0000    0.27980   0.61800   0.35750   Biso      1.000     C          0.009434999999999999          
         C26       1.0000    0.69950   0.86780   0.85760   Biso      1.000     C          0.014412999999999999          
         C27       1.0000    0.69950   0.63220   0.35760   Biso      1.000     C          -0.005453           
         C28       1.0000    0.27980   0.88200   0.64250   Biso      1.000     C          0.009429  
         Cd1       1.0000    0.51049   0.37504   0.91498   Biso      1.000     Cd          0.591878  
         Cd2       1.0000    0.01046   0.12374   0.25000   Biso      1.000     Cd          1.052843  
         Cd3       1.0000    0.51049   0.12496   0.08502   Biso      1.000     Cd          0.5918939999999999  
         Cd4       1.0000    0.98954   0.87626   0.75000   Biso      1.000     Cd          1.052842  
         Cd5       1.0000    0.48951   0.62496   0.41498   Biso      1.000     Cd          0.5918859999999999  
         Cd6       1.0000    0.51049   0.12496   0.41498   Biso      1.000     Cd          0.46968699999999997           
         Cd7       1.0000    0.01046   0.37626   0.75000   Biso      1.000     Cd          1.0528389999999999  
         Cd8       1.0000    0.98954   0.62374   0.25000   Biso      1.000     Cd          1.05284   
         Cd9       1.0000    0.48951   0.87504   0.91498   Biso      1.000     Cd          0.469681  
         Cd10      1.0000    0.51049   0.37504   0.58502   Biso      1.000     Cd          0.469681  
         Cd11      1.0000    0.48951   0.87504   0.58502   Biso      1.000     Cd          0.591895  
         Cd12      1.0000    0.48951   0.62496   0.08502   Biso      1.000     Cd          0.46968999999999994           
         N1        1.0000    0.82420   0.11280   0.32640   Biso      1.000     N          -0.36959000000000003          
         N2        1.0000    0.19660   0.13440   0.32570   Biso      1.000     N          -0.37545100000000003          
         N3        1.0000    0.49860   0.97520   0.51830   Biso      1.000     N          -0.295614           
         N4        1.0000    0.80340   0.63440   0.32570   Biso      1.000     N          -0.365588           
         N5        1.0000    0.17580   0.61280   0.32640   Biso      1.000     N          -0.358076           
         N6        1.0000    0.17580   0.88720   0.82640   Biso      1.000     N          -0.369589           
         N7        1.0000    0.80340   0.86560   0.82570   Biso      1.000     N          -0.37545300000000004          
         N8        1.0000    0.50140   0.02480   0.01830   Biso      1.000     N          -0.295623           
         N9        1.0000    0.17580   0.88720   0.67360   Biso      1.000     N          -0.358072           
         N10       1.0000    0.17580   0.61280   0.17360   Biso      1.000     N          -0.369586           
         N11       1.0000    0.80340   0.63440   0.17430   Biso      1.000     N          -0.37545500000000004          
         N12       1.0000    0.50140   0.47520   0.98170   Biso      1.000     N          -0.295634           
         N13       1.0000    0.19660   0.13440   0.17430   Biso      1.000     N          -0.365586           
         N14       1.0000    0.82420   0.11280   0.17360   Biso      1.000     N          -0.358073           
         N15       1.0000    0.82420   0.38720   0.67360   Biso      1.000     N          -0.369585           
         N16       1.0000    0.19660   0.36560   0.67430   Biso      1.000     N          -0.375458           
         N17       1.0000    0.80340   0.86560   0.67430   Biso      1.000     N          -0.365585           
         N18       1.0000    0.49860   0.52480   0.48170   Biso      1.000     N          -0.295644           
         N19       1.0000    0.19660   0.36560   0.82570   Biso      1.000     N          -0.365587           
         N20       1.0000    0.82420   0.38720   0.82640   Biso      1.000     N          -0.358076 