
##########################################################################
#               Crystallographic Information Format file
#               Produced by PyCifRW module
#
#  This is a CIF file.  CIF has been adopted by the International
#  Union of Crystallography as the standard for data archiving and
#  transmission.
#
#  For information on this file format, follow the CIF links at
#  http://www.iucr.org
##########################################################################

data_image0

_cell_length_a                          8.695
_cell_length_b                          8.548
_cell_length_c                          21.092
_cell_angle_alpha                       90
_cell_angle_beta                        90
_cell_angle_gamma                       90
_symmetry_space_group_name_H-M          'P 1'
_symmetry_int_tables_number             1
loop_
  _symmetry_equiv_pos_as_xyz
         'x, y, z' 
loop_
  _atom_site_label
  _atom_site_occupancy
  _atom_site_fract_x
  _atom_site_fract_y
  _atom_site_fract_z
  _atom_site_thermal_displace_type
  _atom_site_B_iso_or_equiv
  _atom_site_type_symbol
  _atom_site_charge
         C1        1.0000    0.70580   0.00000   0.89260   Biso      1.000     C          -0.0031550000000000003        
         C2        1.0000    0.50000   0.20600   0.77510   Biso      1.000     C          0.021638  
         C3        1.0000    0.50000   0.29400   0.27510   Biso      1.000     C          0.021638  
         C4        1.0000    0.50000   0.79400   0.77510   Biso      1.000     C          0.021638  
         C5        1.0000    0.82710   0.50000   0.57420   Biso      1.000     C          -0.057596           
         C6        1.0000    0.70580   0.50000   0.39260   Biso      1.000     C          -0.0031550000000000003        
         C7        1.0000    0.29420   0.00000   0.89260   Biso      1.000     C          -0.0031550000000000003        
         C8        1.0000    0.82710   0.00000   0.07420   Biso      1.000     C          -0.057596           
         C9        1.0000    0.17290   0.00000   0.07420   Biso      1.000     C          -0.057596           
         C10       1.0000    0.50000   0.70600   0.27510   Biso      1.000     C          0.021638  
         C11       1.0000    0.29420   0.50000   0.39260   Biso      1.000     C          -0.0031550000000000003        
         C12       1.0000    0.17290   0.50000   0.57420   Biso      1.000     C          -0.057596           
         Cd1       1.0000    0.00000   0.00000   0.00000   Biso      1.000     Cd          0.8194459999999999  
         Cd2       1.0000    0.00000   0.50000   0.50000   Biso      1.000     Cd          0.8194459999999999  
         Cd3       1.0000    0.50000   0.00000   0.83520   Biso      1.000     Cd          0.393504  
         Cd4       1.0000    0.50000   0.50000   0.66750   Biso      1.000     Cd          0.9958    
         Cd5       1.0000    0.50000   0.50000   0.33520   Biso      1.000     Cd          0.393504  
         Cd6       1.0000    0.50000   0.00000   0.16750   Biso      1.000     Cd          0.9958    
         N1        1.0000    0.27450   0.50000   0.60820   Biso      1.000     N          -0.348013           
         N2        1.0000    0.50000   0.30380   0.73820   Biso      1.000     N          -0.369489           
         N3        1.0000    0.50000   0.19620   0.23820   Biso      1.000     N          -0.369489           
         N4        1.0000    0.50000   0.69620   0.73820   Biso      1.000     N          -0.369489           
         N5        1.0000    0.72550   0.50000   0.60820   Biso      1.000     N          -0.348013           
         N6        1.0000    0.81050   0.50000   0.42520   Biso      1.000     N          -0.34775900000000004          
         N7        1.0000    0.72550   0.00000   0.10820   Biso      1.000     N          -0.348013           
         N8        1.0000    0.18950   0.00000   0.92520   Biso      1.000     N          -0.34775900000000004          
         N9        1.0000    0.81050   0.00000   0.92520   Biso      1.000     N          -0.34775900000000004          
         N10       1.0000    0.27450   0.00000   0.10820   Biso      1.000     N          -0.348013           
         N11       1.0000    0.18950   0.50000   0.42520   Biso      1.000     N          -0.34775900000000004          
         N12       1.0000    0.50000   0.80380   0.23820   Biso      1.000     N          -0.369489 