
##########################################################################
#               Crystallographic Information Format file
#               Produced by PyCifRW module
#
#  This is a CIF file.  CIF has been adopted by the International
#  Union of Crystallography as the standard for data archiving and
#  transmission.
#
#  For information on this file format, follow the CIF links at
#  http://www.iucr.org
##########################################################################

data_image0

_cell_length_a                          15.4128
_cell_length_b                          15.4128
_cell_length_c                          15.4128
_cell_angle_alpha                       76.3412
_cell_angle_beta                        76.3412
_cell_angle_gamma                       76.3412
_symmetry_space_group_name_H-M          'P 1'
_symmetry_int_tables_number             1
loop_
  _symmetry_equiv_pos_as_xyz
         'x, y, z' 
loop_
  _atom_site_label
  _atom_site_occupancy
  _atom_site_fract_x
  _atom_site_fract_y
  _atom_site_fract_z
  _atom_site_thermal_displace_type
  _atom_site_B_iso_or_equiv
  _atom_site_type_symbol
  _atom_site_charge
         C1        1.0000    0.82658   0.49038   0.95238   Biso      1.000     C          -0.1501   
         C2        1.0000    0.51427   0.32924   0.06550   Biso      1.000     C          0.636705  
         C3        1.0000    0.04762   0.50962   0.17342   Biso      1.000     C          -0.150101           
         C4        1.0000    0.10383   0.51534   0.23005   Biso      1.000     C          -0.020348           
         C5        1.0000    0.06550   0.51427   0.32924   Biso      1.000     C          0.636705  
         C6        1.0000    0.17342   0.04762   0.50962   Biso      1.000     C          -0.150099           
         C7        1.0000    0.23005   0.10383   0.51534   Biso      1.000     C          -0.02035  
         C8        1.0000    0.32924   0.06550   0.51427   Biso      1.000     C          0.636705  
         C9        1.0000    0.76995   0.48466   0.89617   Biso      1.000     C          -0.020349           
         C10       1.0000    0.67076   0.48573   0.93450   Biso      1.000     C          0.636705  
         C11       1.0000    0.49038   0.95238   0.82658   Biso      1.000     C          -0.1501   
         C12       1.0000    0.48466   0.89617   0.76995   Biso      1.000     C          -0.02035  
         C13       1.0000    0.48573   0.93450   0.67076   Biso      1.000     C          0.636705  
         C14       1.0000    0.95238   0.82658   0.49038   Biso      1.000     C          -0.150101           
         C15       1.0000    0.89617   0.76995   0.48466   Biso      1.000     C          -0.020349           
         C16       1.0000    0.49038   0.82658   0.95238   Biso      1.000     C          -0.1501   
         C17       1.0000    0.51534   0.23005   0.10383   Biso      1.000     C          -0.020348           
         C18       1.0000    0.50962   0.17342   0.04762   Biso      1.000     C          -0.150101           
         C19       1.0000    0.08242   0.08242   0.50867   Biso      1.000     C          0.15919   
         C20       1.0000    0.02317   0.02317   0.50237   Biso      1.000     C          -0.106575           
         C21       1.0000    0.48134   0.80499   0.80499   Biso      1.000     C          -0.120998           
         C22       1.0000    0.49763   0.97683   0.97683   Biso      1.000     C          -0.106575           
         C23       1.0000    0.49133   0.91758   0.91758   Biso      1.000     C          0.159192  
         C24       1.0000    0.80499   0.48134   0.80499   Biso      1.000     C          -0.120998           
         C25       1.0000    0.97683   0.49763   0.97683   Biso      1.000     C          -0.106575           
         C26       1.0000    0.91758   0.49133   0.91758   Biso      1.000     C          0.15919   
         C27       1.0000    0.80499   0.80499   0.48134   Biso      1.000     C          -0.120997           
         C28       1.0000    0.48466   0.76995   0.89617   Biso      1.000     C          -0.020349           
         C29       1.0000    0.97683   0.97683   0.49763   Biso      1.000     C          -0.106439           
         C30       1.0000    0.19501   0.51866   0.19501   Biso      1.000     C          -0.120997           
         C31       1.0000    0.02317   0.50237   0.02317   Biso      1.000     C          -0.106439           
         C32       1.0000    0.08242   0.50867   0.08242   Biso      1.000     C          0.159174  
         C33       1.0000    0.51866   0.19501   0.19501   Biso      1.000     C          -0.120997           
         C34       1.0000    0.50237   0.02317   0.02317   Biso      1.000     C          -0.106439           
         C35       1.0000    0.50867   0.08242   0.08242   Biso      1.000     C          0.159174  
         C36       1.0000    0.19501   0.19501   0.51866   Biso      1.000     C          -0.120997           
         C37       1.0000    0.91758   0.91758   0.49133   Biso      1.000     C          0.159174  
         C38       1.0000    0.48573   0.67076   0.93450   Biso      1.000     C          0.636705  
         C39       1.0000    0.93450   0.67076   0.48573   Biso      1.000     C          0.636706  
         C40       1.0000    0.89617   0.48466   0.76995   Biso      1.000     C          -0.020349           
         C41       1.0000    0.06550   0.32924   0.51427   Biso      1.000     C          0.636705  
         C42       1.0000    0.10383   0.23005   0.51534   Biso      1.000     C          -0.020349           
         C43       1.0000    0.04762   0.17342   0.50962   Biso      1.000     C          -0.150098           
         C44       1.0000    0.51427   0.06550   0.32924   Biso      1.000     C          0.636705  
         C45       1.0000    0.51534   0.10383   0.23005   Biso      1.000     C          -0.020348           
         C46       1.0000    0.50962   0.04762   0.17342   Biso      1.000     C          -0.150099           
         C47       1.0000    0.32924   0.51427   0.06550   Biso      1.000     C          0.636705  
         C48       1.0000    0.95238   0.49038   0.82658   Biso      1.000     C          -0.150098           
         C49       1.0000    0.17342   0.50962   0.04762   Biso      1.000     C          -0.150099           
         C50       1.0000    0.67076   0.93450   0.48573   Biso      1.000     C          0.636705  
         C51       1.0000    0.76995   0.89617   0.48466   Biso      1.000     C          -0.020348           
         C52       1.0000    0.82658   0.95238   0.49038   Biso      1.000     C          -0.150099           
         C53       1.0000    0.93450   0.48573   0.67076   Biso      1.000     C          0.636705  
         C54       1.0000    0.23005   0.51534   0.10383   Biso      1.000     C          -0.020348           
         H1        1.0000    0.80310   0.49360   0.01320   Biso      1.000     H          0.1304    
         H2        1.0000    0.98680   0.19690   0.50640   Biso      1.000     H          0.1304    
         H3        1.0000    0.19690   0.50640   0.98680   Biso      1.000     H          0.130399  
         H4        1.0000    0.80310   0.01320   0.49360   Biso      1.000     H          0.1304    
         H5        1.0000    0.01320   0.49360   0.80310   Biso      1.000     H          0.1304    
         H6        1.0000    0.49360   0.80310   0.01320   Biso      1.000     H          0.1304    
         H7        1.0000    0.01320   0.80310   0.49360   Biso      1.000     H          0.1304    
         H8        1.0000    0.49360   0.01320   0.80310   Biso      1.000     H          0.1304    
         H9        1.0000    0.50640   0.98680   0.19690   Biso      1.000     H          0.1304    
         H10       1.0000    0.98680   0.50640   0.19690   Biso      1.000     H          0.1304    
         H11       1.0000    0.50640   0.19690   0.98680   Biso      1.000     H          0.130399  
         H12       1.0000    0.23250   0.23250   0.52300   Biso      1.000     H          0.131371  
         H13       1.0000    0.52300   0.23250   0.23250   Biso      1.000     H          0.131371  
         H14       1.0000    0.23250   0.52300   0.23250   Biso      1.000     H          0.131371  
         H15       1.0000    0.76750   0.76750   0.47700   Biso      1.000     H          0.131371  
         H16       1.0000    0.76750   0.47700   0.76750   Biso      1.000     H          0.131371  
         H17       1.0000    0.47700   0.76750   0.76750   Biso      1.000     H          0.131371  
         H18       1.0000    0.19690   0.98680   0.50640   Biso      1.000     H          0.1304    
         O1        1.0000    0.49441   0.64267   0.01421   Biso      1.000     O          -0.577012           
         O2        1.0000    0.47851   0.62421   0.88075   Biso      1.000     O          -0.577632           
         O3        1.0000    0.01421   0.64267   0.49441   Biso      1.000     O          -0.577012           
         O4        1.0000    0.88075   0.62421   0.47851   Biso      1.000     O          -0.577632           
         O5        1.0000    0.49441   0.01421   0.64267   Biso      1.000     O          -0.577012           
         O6        1.0000    0.47851   0.88075   0.62421   Biso      1.000     O          -0.577632           
         O7        1.0000    0.35733   0.98579   0.50559   Biso      1.000     O          -0.577012           
         O8        1.0000    0.98579   0.50559   0.35733   Biso      1.000     O          -0.577012           
         O9        1.0000    0.37579   0.11925   0.52149   Biso      1.000     O          -0.577632           
         O10       1.0000    0.62421   0.47851   0.88075   Biso      1.000     O          -0.577632           
         O11       1.0000    0.88075   0.47851   0.62421   Biso      1.000     O          -0.577632           
         O12       1.0000    0.64267   0.49441   0.01421   Biso      1.000     O          -0.577012           
         O13       1.0000    0.11925   0.52149   0.37579   Biso      1.000     O          -0.577632           
         O14       1.0000    0.01421   0.49441   0.64267   Biso      1.000     O          -0.577012           
         O15       1.0000    0.52149   0.37579   0.11925   Biso      1.000     O          -0.577632           
         O16       1.0000    0.64267   0.01421   0.49441   Biso      1.000     O          -0.577012           
         O17       1.0000    0.37579   0.52149   0.11925   Biso      1.000     O          -0.577632           
         O18       1.0000    0.35733   0.50559   0.98579   Biso      1.000     O          -0.577012           
         O19       1.0000    0.52149   0.11925   0.37579   Biso      1.000     O          -0.577632           
         O20       1.0000    0.50559   0.98579   0.35733   Biso      1.000     O          -0.577012           
         O21       1.0000    0.11925   0.37579   0.52149   Biso      1.000     O          -0.577632           
         O22       1.0000    0.98579   0.35733   0.50559   Biso      1.000     O          -0.577012           
         O23       1.0000    0.50559   0.35733   0.98579   Biso      1.000     O          -0.577012           
         O24       1.0000    0.62421   0.88075   0.47851   Biso      1.000     O          -0.577632           
         Zn1       1.0000    0.48674   0.48674   0.91179   Biso      1.000     Zn          1.052925  
         Zn2       1.0000    0.91179   0.48674   0.48674   Biso      1.000     Zn          1.052925  
         Zn3       1.0000    0.48674   0.91179   0.48674   Biso      1.000     Zn          1.052925  
         Zn4       1.0000    0.51326   0.51326   0.08821   Biso      1.000     Zn          1.052925  
         Zn5       1.0000    0.51326   0.08821   0.51326   Biso      1.000     Zn          1.052925  
         Zn6       1.0000    0.08821   0.51326   0.51326   Biso      1.000     Zn          1.052925 