
##########################################################################
#               Crystallographic Information Format file
#               Produced by PyCifRW module
#
#  This is a CIF file.  CIF has been adopted by the International
#  Union of Crystallography as the standard for data archiving and
#  transmission.
#
#  For information on this file format, follow the CIF links at
#  http://www.iucr.org
##########################################################################

data_image0

_cell_length_a                          15.3301
_cell_length_b                          15.3301
_cell_length_c                          15.3301
_cell_angle_alpha                       102.038
_cell_angle_beta                        102.038
_cell_angle_gamma                       102.038
_symmetry_space_group_name_H-M          'P 1'
_symmetry_int_tables_number             1
loop_
  _symmetry_equiv_pos_as_xyz
         'x, y, z' 
loop_
  _atom_site_label
  _atom_site_occupancy
  _atom_site_fract_x
  _atom_site_fract_y
  _atom_site_fract_z
  _atom_site_thermal_displace_type
  _atom_site_B_iso_or_equiv
  _atom_site_type_symbol
  _atom_site_charge
         C1        1.0000    0.98733   0.42180   0.83086   Biso      1.000     C          0.6345149999999999  
         C2        1.0000    0.61237   0.00639   0.26686   Biso      1.000     C          -0.014127           
         C3        1.0000    0.16914   0.57820   0.01267   Biso      1.000     C          0.634516  
         C4        1.0000    0.32398   0.55319   0.00806   Biso      1.000     C          -0.154468           
         C5        1.0000    0.26686   0.61237   0.00639   Biso      1.000     C          -0.014119           
         C6        1.0000    0.01267   0.16914   0.57820   Biso      1.000     C          0.634516  
         C7        1.0000    0.00806   0.32398   0.55319   Biso      1.000     C          -0.154475           
         C8        1.0000    0.00639   0.26686   0.61237   Biso      1.000     C          -0.014119           
         C9        1.0000    0.99194   0.44681   0.67602   Biso      1.000     C          -0.154476           
         C10       1.0000    0.99361   0.38763   0.73314   Biso      1.000     C          -0.014119999999999999         
         C11       1.0000    0.42180   0.83086   0.98733   Biso      1.000     C          0.634516  
         C12       1.0000    0.44681   0.67602   0.99194   Biso      1.000     C          -0.154469           
         C13       1.0000    0.38763   0.73314   0.99361   Biso      1.000     C          -0.014119           
         C14       1.0000    0.83086   0.98733   0.42180   Biso      1.000     C          0.634516  
         C15       1.0000    0.67602   0.99194   0.44681   Biso      1.000     C          -0.154476           
         C16       1.0000    0.42180   0.98733   0.83086   Biso      1.000     C          0.634516  
         C17       1.0000    0.55319   0.00806   0.32398   Biso      1.000     C          -0.154472           
         C18       1.0000    0.57820   0.01267   0.16914   Biso      1.000     C          0.634516  
         C19       1.0000    0.41357   0.00000   0.58643   Biso      1.000     C          0.14904   
         C20       1.0000    0.29829   0.00000   0.70171   Biso      1.000     C          -0.12365999999999999          
         C21       1.0000    0.00000   0.47598   0.52403   Biso      1.000     C          -0.10836300000000001          
         C22       1.0000    0.00000   0.29829   0.70171   Biso      1.000     C          -0.123661           
         C23       1.0000    0.00000   0.41357   0.58643   Biso      1.000     C          0.149072  
         C24       1.0000    0.47597   0.52402   0.00000   Biso      1.000     C          -0.10829200000000001          
         C25       1.0000    0.29829   0.70171   0.00000   Biso      1.000     C          -0.12365899999999999          
         C26       1.0000    0.41357   0.58643   0.00000   Biso      1.000     C          0.149041  
         C27       1.0000    0.52402   0.00000   0.47597   Biso      1.000     C          -0.10836300000000001          
         C28       1.0000    0.44681   0.99194   0.67602   Biso      1.000     C          -0.15448199999999998          
         C29       1.0000    0.70171   0.00000   0.29829   Biso      1.000     C          -0.123661           
         C30       1.0000    0.00000   0.52402   0.47597   Biso      1.000     C          -0.10806700000000001          
         C31       1.0000    0.00000   0.70171   0.29829   Biso      1.000     C          -0.12365899999999999          
         C32       1.0000    0.00000   0.58643   0.41357   Biso      1.000     C          0.149035  
         C33       1.0000    0.52403   0.47597   0.00000   Biso      1.000     C          -0.108176           
         C34       1.0000    0.70171   0.29829   0.00000   Biso      1.000     C          -0.12365999999999999          
         C35       1.0000    0.58643   0.41357   0.00000   Biso      1.000     C          0.149065  
         C36       1.0000    0.47598   0.00000   0.52403   Biso      1.000     C          -0.10806600000000001          
         C37       1.0000    0.58643   0.00000   0.41357   Biso      1.000     C          0.149076  
         C38       1.0000    0.38763   0.99361   0.73314   Biso      1.000     C          -0.014118           
         C39       1.0000    0.73314   0.99361   0.38763   Biso      1.000     C          -0.014119           
         C40       1.0000    0.67602   0.44681   0.99194   Biso      1.000     C          -0.15446400000000002          
         C41       1.0000    0.26686   0.00639   0.61237   Biso      1.000     C          -0.014122999999999998         
         C42       1.0000    0.32398   0.00806   0.55319   Biso      1.000     C          -0.154473           
         C43       1.0000    0.16914   0.01267   0.57820   Biso      1.000     C          0.634517  
         C44       1.0000    0.61237   0.26686   0.00639   Biso      1.000     C          -0.014129           
         C45       1.0000    0.55319   0.32398   0.00806   Biso      1.000     C          -0.15445699999999998          
         C46       1.0000    0.57820   0.16914   0.01267   Biso      1.000     C          0.634517  
         C47       1.0000    0.00639   0.61237   0.26686   Biso      1.000     C          -0.014124000000000001         
         C48       1.0000    0.83086   0.42180   0.98733   Biso      1.000     C          0.634516  
         C49       1.0000    0.01267   0.57820   0.16914   Biso      1.000     C          0.634516  
         C50       1.0000    0.99361   0.73314   0.38763   Biso      1.000     C          -0.014122999999999998         
         C51       1.0000    0.99194   0.67602   0.44681   Biso      1.000     C          -0.154471           
         C52       1.0000    0.98733   0.83086   0.42180   Biso      1.000     C          0.634517  
         C53       1.0000    0.73314   0.38763   0.99361   Biso      1.000     C          -0.014121000000000002         
         C54       1.0000    0.00806   0.55319   0.32398   Biso      1.000     C          -0.154473           
         H1        1.0000    0.98580   0.50620   0.69630   Biso      1.000     H          0.140031  
         H2        1.0000    0.30370   0.01420   0.49380   Biso      1.000     H          0.14003   
         H3        1.0000    0.01420   0.49380   0.30370   Biso      1.000     H          0.140029  
         H4        1.0000    0.98580   0.69630   0.50620   Biso      1.000     H          0.14003   
         H5        1.0000    0.69630   0.50620   0.98580   Biso      1.000     H          0.140031  
         H6        1.0000    0.50620   0.98580   0.69630   Biso      1.000     H          0.14003   
         H7        1.0000    0.69630   0.98580   0.50620   Biso      1.000     H          0.140032  
         H8        1.0000    0.50620   0.69630   0.98580   Biso      1.000     H          0.14003   
         H9        1.0000    0.49380   0.30370   0.01420   Biso      1.000     H          0.14003   
         H10       1.0000    0.30370   0.49380   0.01420   Biso      1.000     H          0.14003   
         H11       1.0000    0.49380   0.01420   0.30370   Biso      1.000     H          0.140031  
         H12       1.0000    0.25925   0.00000   0.74075   Biso      1.000     H          0.128735  
         H13       1.0000    0.74075   0.25925   0.00000   Biso      1.000     H          0.128736  
         H14       1.0000    0.00000   0.74075   0.25925   Biso      1.000     H          0.128735  
         H15       1.0000    0.74075   0.00000   0.25925   Biso      1.000     H          0.128736  
         H16       1.0000    0.25925   0.74075   0.00000   Biso      1.000     H          0.128736  
         H17       1.0000    0.00000   0.25925   0.74075   Biso      1.000     H          0.128736  
         H18       1.0000    0.01420   0.30370   0.49380   Biso      1.000     H          0.140032  
         O1        1.0000    0.50028   0.97397   0.85349   Biso      1.000     O          -0.5925159999999999           
         O2        1.0000    0.37163   0.00246   0.88303   Biso      1.000     O          -0.564646           
         O3        1.0000    0.85349   0.97397   0.50028   Biso      1.000     O          -0.5925159999999999           
         O4        1.0000    0.88303   0.00246   0.37163   Biso      1.000     O          -0.564645           
         O5        1.0000    0.50028   0.85349   0.97397   Biso      1.000     O          -0.592515           
         O6        1.0000    0.37163   0.88303   0.00246   Biso      1.000     O          -0.564645           
         O7        1.0000    0.02603   0.14651   0.49972   Biso      1.000     O          -0.5925159999999999           
         O8        1.0000    0.14651   0.49972   0.02603   Biso      1.000     O          -0.592515           
         O9        1.0000    0.99754   0.11697   0.62837   Biso      1.000     O          -0.564645           
         O10       1.0000    0.00246   0.37163   0.88303   Biso      1.000     O          -0.564645           
         O11       1.0000    0.88303   0.37163   0.00246   Biso      1.000     O          -0.564645           
         O12       1.0000    0.97397   0.50028   0.85349   Biso      1.000     O          -0.5925159999999999           
         O13       1.0000    0.11697   0.62837   0.99754   Biso      1.000     O          -0.564646           
         O14       1.0000    0.85349   0.50028   0.97397   Biso      1.000     O          -0.5925159999999999           
         O15       1.0000    0.62837   0.99754   0.11697   Biso      1.000     O          -0.564645           
         O16       1.0000    0.97397   0.85349   0.50028   Biso      1.000     O          -0.5925159999999999           
         O17       1.0000    0.99754   0.62837   0.11697   Biso      1.000     O          -0.564646           
         O18       1.0000    0.02603   0.49972   0.14651   Biso      1.000     O          -0.5925159999999999           
         O19       1.0000    0.62837   0.11697   0.99754   Biso      1.000     O          -0.564645           
         O20       1.0000    0.49972   0.14651   0.02603   Biso      1.000     O          -0.5925159999999999           
         O21       1.0000    0.11697   0.99754   0.62837   Biso      1.000     O          -0.564645           
         O22       1.0000    0.14651   0.02603   0.49972   Biso      1.000     O          -0.5925159999999999           
         O23       1.0000    0.49972   0.02603   0.14651   Biso      1.000     O          -0.592517           
         O24       1.0000    0.00246   0.88303   0.37163   Biso      1.000     O          -0.564645           
         Zn1       1.0000    0.58347   0.97702   0.97702   Biso      1.000     Zn          1.056506  
         Zn2       1.0000    0.97702   0.58347   0.97702   Biso      1.000     Zn          1.056506  
         Zn3       1.0000    0.97702   0.97702   0.58347   Biso      1.000     Zn          1.0565069999999999  
         Zn4       1.0000    0.02298   0.41653   0.02298   Biso      1.000     Zn          1.056506  
         Zn5       1.0000    0.41653   0.02298   0.02298   Biso      1.000     Zn          1.056506  
         Zn6       1.0000    0.02298   0.02298   0.41653   Biso      1.000     Zn          1.0565069999999999 