
##########################################################################
#               Crystallographic Information Format file
#               Produced by PyCifRW module
#
#  This is a CIF file.  CIF has been adopted by the International
#  Union of Crystallography as the standard for data archiving and
#  transmission.
#
#  For information on this file format, follow the CIF links at
#  http://www.iucr.org
##########################################################################

data_image0

_cell_length_a                          10.7608
_cell_length_b                          11.6351
_cell_length_c                          16.8538
_cell_angle_alpha                       84.9662
_cell_angle_beta                        79.0621
_cell_angle_gamma                       62.4561
_symmetry_space_group_name_H-M          'P 1'
_symmetry_int_tables_number             1
loop_
  _symmetry_equiv_pos_as_xyz
         'x, y, z' 
loop_
  _atom_site_label
  _atom_site_occupancy
  _atom_site_fract_x
  _atom_site_fract_y
  _atom_site_fract_z
  _atom_site_thermal_displace_type
  _atom_site_B_iso_or_equiv
  _atom_site_type_symbol
  _atom_site_charge
         C1        1.0000    0.86490   0.75960   0.97660   Biso      1.000     C          0.077562  
         C2        1.0000    0.65230   0.45340   0.14080   Biso      1.000     C          0.614362  
         C3        1.0000    0.45210   0.26200   0.02750   Biso      1.000     C          0.555438  
         C4        1.0000    0.08320   0.14880   0.00770   Biso      1.000     C          0.681732  
         C5        1.0000    0.13510   0.24040   0.02340   Biso      1.000     C          0.07756   
         C6        1.0000    0.07070   0.36220   0.05420   Biso      1.000     C          -0.170672           
         C7        1.0000    0.17980   0.39480   0.05920   Biso      1.000     C          -0.17099  
         C8        1.0000    0.30310   0.29380   0.03060   Biso      1.000     C          0.099337  
         C9        1.0000    0.87270   0.33960   0.68500   Biso      1.000     C          0.097979  
         C10       1.0000    0.79580   0.46520   0.70670   Biso      1.000     C          -0.179725           
         C11       1.0000    0.95170   0.27740   0.60730   Biso      1.000     C          0.585113  
         C12       1.0000    0.71330   0.64080   0.28270   Biso      1.000     C          -0.187316           
         C13       1.0000    0.79660   0.51560   0.29880   Biso      1.000     C          0.075284  
         C14       1.0000    0.89430   0.45340   0.35920   Biso      1.000     C          0.615084  
         C15       1.0000    0.28590   0.26200   0.47250   Biso      1.000     C          0.55428   
         C16       1.0000    0.76800   0.14880   0.49230   Biso      1.000     C          0.682198  
         C17       1.0000    0.62450   0.24040   0.47660   Biso      1.000     C          0.075668  
         C18       1.0000    0.56710   0.36220   0.44580   Biso      1.000     C          -0.170791           
         C19       1.0000    0.42540   0.39480   0.44080   Biso      1.000     C          -0.171646           
         C20       1.0000    0.40310   0.29380   0.46940   Biso      1.000     C          0.100395  
         C21       1.0000    0.21230   0.66040   0.18500   Biso      1.000     C          0.098138  
         C22       1.0000    0.26100   0.53480   0.20670   Biso      1.000     C          -0.179012           
         C23       1.0000    0.68780   0.51560   0.20120   Biso      1.000     C          0.076619  
         C24       1.0000    0.64590   0.64080   0.21730   Biso      1.000     C          -0.188846           
         C25       1.0000    0.77090   0.27740   0.89270   Biso      1.000     C          0.584342  
         C26       1.0000    0.73900   0.46520   0.79330   Biso      1.000     C          -0.179032           
         C27       1.0000    0.59690   0.70620   0.53060   Biso      1.000     C          0.100368  
         C28       1.0000    0.57460   0.60520   0.55920   Biso      1.000     C          -0.17162  
         C29       1.0000    0.43290   0.63780   0.55420   Biso      1.000     C          -0.170805           
         C30       1.0000    0.37550   0.75960   0.52340   Biso      1.000     C          0.075678  
         C31       1.0000    0.23200   0.85120   0.50770   Biso      1.000     C          0.682198  
         C32       1.0000    0.71410   0.73800   0.52750   Biso      1.000     C          0.554285  
         C33       1.0000    0.10570   0.54660   0.64080   Biso      1.000     C          0.615085  
         C34       1.0000    0.20340   0.48440   0.70120   Biso      1.000     C          0.075268  
         C35       1.0000    0.22910   0.72260   0.10730   Biso      1.000     C          0.584343  
         C36       1.0000    0.04830   0.72260   0.39270   Biso      1.000     C          0.585112  
         C37       1.0000    0.28670   0.35920   0.71730   Biso      1.000     C          -0.187298           
         C38       1.0000    0.12730   0.66040   0.31500   Biso      1.000     C          0.09798   
         C39       1.0000    0.69690   0.70620   0.96940   Biso      1.000     C          0.099318  
         C40       1.0000    0.82020   0.60520   0.94080   Biso      1.000     C          -0.170965           
         C41       1.0000    0.92930   0.63780   0.94580   Biso      1.000     C          -0.170676           
         C42       1.0000    0.91680   0.85120   0.99230   Biso      1.000     C          0.681729  
         C43       1.0000    0.54790   0.73800   0.97250   Biso      1.000     C          0.555437  
         C44       1.0000    0.34770   0.54660   0.85920   Biso      1.000     C          0.614362  
         C45       1.0000    0.31220   0.48440   0.79880   Biso      1.000     C          0.076619  
         C46       1.0000    0.78770   0.33960   0.81500   Biso      1.000     C          0.098155  
         C47       1.0000    0.20420   0.53480   0.29330   Biso      1.000     C          -0.179727           
         C48       1.0000    0.35410   0.35920   0.78270   Biso      1.000     C          -0.188848           
         Co1       1.0000    0.00000   0.50000   0.50000   Biso      1.000     Co          1.121082  
         Co2       1.0000    0.50000   0.50000   0.00000   Biso      1.000     Co          1.121434  
         Gd1       1.0000    0.74409   0.17086   0.05143   Biso      1.000     Gd          2.050229  
         Gd2       1.0000    0.08505   0.17086   0.44857   Biso      1.000     Gd          2.049462  
         Gd3       1.0000    0.25591   0.82914   0.94857   Biso      1.000     Gd          2.050229  
         Gd4       1.0000    0.91495   0.82914   0.55143   Biso      1.000     Gd          2.049462  
         H1        1.0000    0.64030   0.52800   0.57880   Biso      1.000     H          0.14939   
         H2        1.0000    0.68140   0.53700   0.82630   Biso      1.000     H          0.154451  
         H3        1.0000    0.58500   0.71300   0.19100   Biso      1.000     H          0.158253  
         H4        1.0000    0.97340   0.41420   0.06900   Biso      1.000     H          0.148534  
         H5        1.0000    0.16830   0.47200   0.07880   Biso      1.000     H          0.149342  
         H6        1.0000    0.78160   0.53700   0.67370   Biso      1.000     H          0.15549   
         H7        1.0000    0.70200   0.71300   0.30900   Biso      1.000     H          0.157556  
         H8        1.0000    0.38760   0.58580   0.56900   Biso      1.000     H          0.149011  
         H9        1.0000    0.35970   0.47200   0.42120   Biso      1.000     H          0.149392  
         H10       1.0000    0.31860   0.46300   0.17370   Biso      1.000     H          0.15445   
         H11       1.0000    0.41500   0.28700   0.80900   Biso      1.000     H          0.158254  
         H12       1.0000    0.02660   0.58580   0.93100   Biso      1.000     H          0.148534  
         H13       1.0000    0.83170   0.52800   0.92120   Biso      1.000     H          0.14934   
         H14       1.0000    0.21840   0.46300   0.32630   Biso      1.000     H          0.155491  
         H15       1.0000    0.29800   0.28700   0.69100   Biso      1.000     H          0.157555  
         H16       1.0000    0.61240   0.41420   0.43100   Biso      1.000     H          0.14901   
         O1        1.0000    0.04920   0.80900   0.97590   Biso      1.000     O          -0.679134           
         O2        1.0000    0.72110   0.80400   0.99170   Biso      1.000     O          -0.091598           
         O3        1.0000    0.52190   0.65620   0.94040   Biso      1.000     O          -0.693141           
         O4        1.0000    0.44870   0.84000   0.00360   Biso      1.000     O          -0.565519           
         O5        1.0000    0.29730   0.66760   0.85780   Biso      1.000     O          -0.682296           
         O6        1.0000    0.42630   0.46880   0.90600   Biso      1.000     O          -0.563169           
         O7        1.0000    0.98280   0.84220   0.39940   Biso      1.000     O          -0.566843           
         O8        1.0000    0.05340   0.64900   0.45400   Biso      1.000     O          -0.673418           
         O9        1.0000    0.47490   0.80400   0.50830   Biso      1.000     O          -0.090668           
         O10       1.0000    0.14180   0.80900   0.52410   Biso      1.000     O          -0.678878           
         O11       1.0000    0.82190   0.65620   0.55960   Biso      1.000     O          -0.692881           
         O12       1.0000    0.71130   0.84000   0.49640   Biso      1.000     O          -0.564971           
         O13       1.0000    0.03510   0.66760   0.64220   Biso      1.000     O          -0.681996           
         O14       1.0000    0.10490   0.46880   0.59400   Biso      1.000     O          -0.563389           
         O15       1.0000    0.87030   0.25940   0.75000   Biso      1.000     O          -0.114627           
         O16       1.0000    0.83070   0.95680   0.02090   Biso      1.000     O          -0.677089           
         O17       1.0000    0.12970   0.74060   0.25000   Biso      1.000     O          -0.114626           
         O18       1.0000    0.21250   0.95680   0.47910   Biso      1.000     O          -0.677059           
         O19       1.0000    0.29760   0.64900   0.04600   Biso      1.000     O          -0.672845           
         O20       1.0000    0.94660   0.35100   0.54600   Biso      1.000     O          -0.673418           
         O21       1.0000    0.89510   0.53120   0.40600   Biso      1.000     O          -0.563389           
         O22       1.0000    0.78170   0.43660   0.25000   Biso      1.000     O          -0.101186           
         O23       1.0000    0.82500   0.15780   0.89940   Biso      1.000     O          -0.566801           
         O24       1.0000    0.70240   0.35100   0.95400   Biso      1.000     O          -0.672845           
         O25       1.0000    0.16930   0.04320   0.97910   Biso      1.000     O          -0.677089           
         O26       1.0000    0.95080   0.19100   0.02410   Biso      1.000     O          -0.679134           
         O27       1.0000    0.27890   0.19600   0.00830   Biso      1.000     O          -0.091599           
         O28       1.0000    0.47810   0.34380   0.05960   Biso      1.000     O          -0.693141           
         O29       1.0000    0.55130   0.16000   0.99640   Biso      1.000     O          -0.565519           
         O30       1.0000    0.70270   0.33240   0.14220   Biso      1.000     O          -0.682296           
         O31       1.0000    0.57370   0.53120   0.09400   Biso      1.000     O          -0.56317  
         O32       1.0000    0.01720   0.15780   0.60060   Biso      1.000     O          -0.566843           
         O33       1.0000    0.78750   0.04320   0.52090   Biso      1.000     O          -0.677059           
         O34       1.0000    0.85820   0.19100   0.47590   Biso      1.000     O          -0.678878           
         O35       1.0000    0.52510   0.19600   0.49170   Biso      1.000     O          -0.090668           
         O36       1.0000    0.17810   0.34380   0.44040   Biso      1.000     O          -0.692879           
         O37       1.0000    0.28870   0.16000   0.50360   Biso      1.000     O          -0.56497  
         O38       1.0000    0.96490   0.33240   0.35780   Biso      1.000     O          -0.681996           
         O39       1.0000    0.17500   0.84220   0.10060   Biso      1.000     O          -0.566801           
         O40       1.0000    0.21830   0.56340   0.75000   Biso      1.000     O          -0.101185 