
##########################################################################
#               Crystallographic Information Format file
#               Produced by PyCifRW module
#
#  This is a CIF file.  CIF has been adopted by the International
#  Union of Crystallography as the standard for data archiving and
#  transmission.
#
#  For information on this file format, follow the CIF links at
#  http://www.iucr.org
##########################################################################

data_image0

_cell_length_a                          8.7809
_cell_length_b                          28.2333
_cell_length_c                          11.3833
_cell_angle_alpha                       90
_cell_angle_beta                        90
_cell_angle_gamma                       90
_symmetry_space_group_name_H-M          'P 1'
_symmetry_int_tables_number             1
loop_
  _symmetry_equiv_pos_as_xyz
         'x, y, z' 
loop_
  _atom_site_label
  _atom_site_occupancy
  _atom_site_fract_x
  _atom_site_fract_y
  _atom_site_fract_z
  _atom_site_thermal_displace_type
  _atom_site_B_iso_or_equiv
  _atom_site_type_symbol
  _atom_site_charge
         C1        1.0000    0.21726   0.88953   0.38733   Biso      1.000     C          0.280223  
         C2        1.0000    0.69554   0.94502   0.40683   Biso      1.000     C          0.044434  
         C3        1.0000    0.25453   0.83506   0.38778   Biso      1.000     C          -0.311413           
         C4        1.0000    0.36999   0.91704   0.39018   Biso      1.000     C          -0.322773           
         C5        1.0000    0.51914   0.62019   0.72454   Biso      1.000     C          0.07687   
         C6        1.0000    0.63542   0.55418   0.72222   Biso      1.000     C          0.102914  
         C7        1.0000    0.19553   0.55505   0.90675   Biso      1.000     C          0.043748  
         C8        1.0000    0.13616   0.94579   0.22134   Biso      1.000     C          0.102904  
         C9        1.0000    0.75441   0.66496   0.88841   Biso      1.000     C          -0.312406           
         C10       1.0000    0.86994   0.58301   0.89049   Biso      1.000     C          -0.321985           
         C11       1.0000    0.47954   0.37974   0.72418   Biso      1.000     C          0.076887  
         C12       1.0000    0.36267   0.44565   0.72145   Biso      1.000     C          0.103137  
         C13       1.0000    0.80429   0.44497   0.90763   Biso      1.000     C          0.043059  
         C14       1.0000    0.24490   0.33499   0.88853   Biso      1.000     C          -0.311317           
         C15       1.0000    0.28211   0.38946   0.88772   Biso      1.000     C          0.279703  
         C16       1.0000    0.71715   0.61049   0.88787   Biso      1.000     C          0.279925  
         C17       1.0000    0.12947   0.41696   0.89083   Biso      1.000     C          -0.322849           
         C18       1.0000    0.01919   0.87991   0.22411   Biso      1.000     C          0.076629  
         C19       1.0000    0.78267   0.11048   0.38734   Biso      1.000     C          0.280729  
         C20       1.0000    0.80449   0.44496   0.09325   Biso      1.000     C          0.044079  
         C21       1.0000    0.24551   0.33500   0.11144   Biso      1.000     C          -0.312433           
         C22       1.0000    0.28279   0.38948   0.11208   Biso      1.000     C          0.280406  
         C23       1.0000    0.13001   0.41696   0.10947   Biso      1.000     C          -0.32267  
         C24       1.0000    0.52047   0.62028   0.27578   Biso      1.000     C          0.077013  
         C25       1.0000    0.63738   0.55438   0.27851   Biso      1.000     C          0.10289   
         C26       1.0000    0.62992   0.08299   0.39017   Biso      1.000     C          -0.32356  
         C27       1.0000    0.19566   0.55503   0.09236   Biso      1.000     C          0.043503  
         C28       1.0000    0.71790   0.61057   0.11223   Biso      1.000     C          0.279306  
         C29       1.0000    0.87053   0.58307   0.10913   Biso      1.000     C          -0.323152           
         C30       1.0000    0.98071   0.12013   0.22408   Biso      1.000     C          0.077661  
         C31       1.0000    0.86408   0.05419   0.22149   Biso      1.000     C          0.103491  
         C32       1.0000    0.30440   0.05499   0.40682   Biso      1.000     C          0.044626  
         C33       1.0000    0.74541   0.16496   0.38791   Biso      1.000     C          -0.312383           
         C34       1.0000    0.75507   0.66504   0.11131   Biso      1.000     C          -0.312055           
         C35       1.0000    0.02046   0.87960   0.77546   Biso      1.000     C          0.077842  
         C36       1.0000    0.13684   0.94559   0.77774   Biso      1.000     C          0.103099  
         C37       1.0000    0.69541   0.94491   0.59244   Biso      1.000     C          0.044896  
         C38       1.0000    0.99874   0.64888   0.99952   Biso      1.000     C          -0.317698           
         C39       1.0000    0.62566   0.59844   0.00027   Biso      1.000     C          -0.32992  
         C40       1.0000    0.70342   0.26914   0.49945   Biso      1.000     C          0.071847  
         C41       1.0000    0.47025   0.25020   0.49961   Biso      1.000     C          0.055213  
         C42       1.0000    0.65059   0.17876   0.49930   Biso      1.000     C          0.274739  
         C43       1.0000    0.53437   0.09559   0.49942   Biso      1.000     C          0.288503  
         C44       1.0000    0.96566   0.59558   0.99966   Biso      1.000     C          0.288811  
         C45       1.0000    0.50130   0.14889   0.49926   Biso      1.000     C          -0.318384           
         C46       1.0000    0.29660   0.73085   0.49922   Biso      1.000     C          0.072288  
         C47       1.0000    0.52975   0.74981   0.49923   Biso      1.000     C          0.054941  
         C48       1.0000    0.34938   0.82123   0.49911   Biso      1.000     C          0.2744    
         C49       1.0000    0.46557   0.90440   0.49938   Biso      1.000     C          0.288602  
         C50       1.0000    0.49866   0.85111   0.49911   Biso      1.000     C          -0.318101           
         C51       1.0000    0.12556   0.90154   0.49966   Biso      1.000     C          -0.329784           
         C52       1.0000    0.87437   0.09844   0.49963   Biso      1.000     C          -0.329553           
         C53       1.0000    0.84946   0.67876   0.99968   Biso      1.000     C          0.274018  
         C54       1.0000    0.02980   0.75019   0.99963   Biso      1.000     C          0.055491  
         C55       1.0000    0.79665   0.76914   0.99952   Biso      1.000     C          0.071672  
         C56       1.0000    0.25480   0.83491   0.61068   Biso      1.000     C          -0.313787           
         C57       1.0000    0.21764   0.88937   0.61168   Biso      1.000     C          0.279849  
         C58       1.0000    0.37031   0.91686   0.60879   Biso      1.000     C          -0.323136           
         C59       1.0000    0.97963   0.12037   0.77538   Biso      1.000     C          0.078156  
         C60       1.0000    0.86356   0.05432   0.77755   Biso      1.000     C          0.103646  
         C61       1.0000    0.30450   0.05509   0.59243   Biso      1.000     C          0.044013  
         C62       1.0000    0.74519   0.16505   0.61081   Biso      1.000     C          -0.313196           
         C63       1.0000    0.78235   0.11058   0.61169   Biso      1.000     C          0.280721  
         C64       1.0000    0.62966   0.08311   0.60882   Biso      1.000     C          -0.323561           
         C65       1.0000    0.20322   0.23087   0.99996   Biso      1.000     C          0.071364  
         C66       1.0000    0.97007   0.24982   0.00002   Biso      1.000     C          0.056553  
         C67       1.0000    0.15047   0.32124   0.00011   Biso      1.000     C          0.274229  
         C68       1.0000    0.03432   0.40442   0.00027   Biso      1.000     C          0.288563  
         C69       1.0000    0.00121   0.35113   0.00032   Biso      1.000     C          -0.318105           
         C70       1.0000    0.37431   0.40155   0.99972   Biso      1.000     C          -0.33045  
         C71       1.0000    0.36449   0.44579   0.27773   Biso      1.000     C          0.103563  
         C72       1.0000    0.48078   0.37978   0.27543   Biso      1.000     C          0.076798  
         Cd1       1.0000    0.68336   0.38328   0.50028   Biso      1.000     Cd          0.813494  
         Cd2       1.0000    0.00039   0.00004   0.99933   Biso      1.000     Cd          0.661485  
         Cd3       1.0000    0.50004   0.50000   0.49995   Biso      1.000     Cd          0.661978  
         Cd4       1.0000    0.81664   0.88328   0.99937   Biso      1.000     Cd          0.814214  
         Cd5       1.0000    0.18345   0.11675   0.99937   Biso      1.000     Cd          0.814041  
         Cd6       1.0000    0.31656   0.61673   0.49958   Biso      1.000     Cd          0.813727  
         Cl1       1.0000    0.25538   0.03256   0.99854   Biso      1.000     Cl          -0.52793  
         Cl2       1.0000    0.88904   0.37131   0.36599   Biso      1.000     Cl          -0.67886  
         Cl3       1.0000    0.24501   0.53250   0.49901   Biso      1.000     Cl          -0.528292           
         Cl4       1.0000    0.38808   0.12928   0.86441   Biso      1.000     Cl          -0.678781           
         Cl5       1.0000    0.38819   0.12876   0.13442   Biso      1.000     Cl          -0.678853           
         Cl6       1.0000    0.61204   0.87134   0.13458   Biso      1.000     Cl          -0.678909           
         Cl7       1.0000    0.11113   0.62878   0.63405   Biso      1.000     Cl          -0.679066           
         Cl8       1.0000    0.75513   0.46749   0.50097   Biso      1.000     Cl          -0.528232           
         Cl9       1.0000    0.88716   0.37079   0.63597   Biso      1.000     Cl          -0.678868           
         Cl10      1.0000    0.74536   0.96754   0.99829   Biso      1.000     Cl          -0.528655           
         Cl11      1.0000    0.61185   0.87091   0.86452   Biso      1.000     Cl          -0.678677           
         Cl12      1.0000    0.11256   0.62912   0.36408   Biso      1.000     Cl          -0.678586           
         H1        1.0000    0.78963   0.02487   0.24117   Biso      1.000     H          0.118831  
         H2        1.0000    0.33371   0.06014   0.31571   Biso      1.000     H          0.116922  
         H3        1.0000    0.68101   0.17448   0.30714   Biso      1.000     H          0.134864  
         H4        1.0000    0.85264   0.18588   0.38727   Biso      1.000     H          0.104703  
         H5        1.0000    0.64991   0.04428   0.39212   Biso      1.000     H          0.110547  
         H6        1.0000    0.21073   0.97509   0.24095   Biso      1.000     H          0.119037  
         H7        1.0000    0.43226   0.15753   0.42008   Biso      1.000     H          0.113064  
         H8        1.0000    0.98097   0.84457   0.24588   Biso      1.000     H          0.112007  
         H9        1.0000    0.66623   0.93988   0.31572   Biso      1.000     H          0.117063  
         H10       1.0000    0.31889   0.82558   0.30697   Biso      1.000     H          0.13469   
         H11       1.0000    0.14730   0.81414   0.38712   Biso      1.000     H          0.104453  
         H12       1.0000    0.01875   0.15550   0.24578   Biso      1.000     H          0.111682  
         H13       1.0000    0.56726   0.09123   0.30847   Biso      1.000     H          0.132587  
         H14       1.0000    0.06801   0.65755   0.07856   Biso      1.000     H          0.112788  
         H15       1.0000    0.48413   0.38183   0.99954   Biso      1.000     H          0.111121  
         H16       1.0000    0.85050   0.54435   0.10735   Biso      1.000     H          0.110356  
         H17       1.0000    0.64782   0.68594   0.11205   Biso      1.000     H          0.104724  
         H18       1.0000    0.81974   0.67464   0.19189   Biso      1.000     H          0.134934  
         H19       1.0000    0.16640   0.56024   0.18347   Biso      1.000     H          0.11734   
         H20       1.0000    0.71178   0.52505   0.25878   Biso      1.000     H          0.119098  
         H21       1.0000    0.48213   0.65559   0.25392   Biso      1.000     H          0.111661  
         H22       1.0000    0.34996   0.95575   0.39221   Biso      1.000     H          0.110406  
         H23       1.0000    0.06747   0.40866   0.19120   Biso      1.000     H          0.132171  
         H24       1.0000    0.14994   0.45568   0.10761   Biso      1.000     H          0.1106    
         H25       1.0000    0.35273   0.31408   0.11193   Biso      1.000     H          0.104801  
         H26       1.0000    0.18122   0.32545   0.19224   Biso      1.000     H          0.134688  
         H27       1.0000    0.83393   0.43974   0.18431   Biso      1.000     H          0.117011  
         H28       1.0000    0.29021   0.47513   0.25794   Biso      1.000     H          0.1188    
         H29       1.0000    0.51861   0.34438   0.25390   Biso      1.000     H          0.112221  
         H30       1.0000    0.93345   0.59137   0.19067   Biso      1.000     H          0.132293  
         H31       1.0000    0.43263   0.90882   0.30845   Biso      1.000     H          0.13214   
         H32       1.0000    0.40079   0.43991   0.99965   Biso      1.000     H          0.143179  
         H33       1.0000    0.48131   0.65559   0.74608   Biso      1.000     H          0.112083  
         H34       1.0000    0.33388   0.06036   0.68350   Biso      1.000     H          0.117439  
         H35       1.0000    0.68069   0.17466   0.69146   Biso      1.000     H          0.13492   
         H36       1.0000    0.85245   0.18595   0.61140   Biso      1.000     H          0.104875  
         H37       1.0000    0.64959   0.04439   0.60709   Biso      1.000     H          0.110381  
         H38       1.0000    0.56689   0.09146   0.69041   Biso      1.000     H          0.13286   
         H39       1.0000    0.43210   0.15757   0.57832   Biso      1.000     H          0.112889  
         H40       1.0000    0.32637   0.23215   0.99977   Biso      1.000     H          0.116171  
         H41       1.0000    0.86370   0.26905   0.99999   Biso      1.000     H          0.111061  
         H42       1.0000    0.09907   0.93990   0.49987   Biso      1.000     H          0.143035  
         H43       1.0000    0.01575   0.88182   0.49969   Biso      1.000     H          0.111     
         H44       1.0000    0.56770   0.84250   0.41992   Biso      1.000     H          0.11305   
         H45       1.0000    0.63612   0.76904   0.49920   Biso      1.000     H          0.11138   
         H46       1.0000    0.17345   0.73213   0.49901   Biso      1.000     H          0.115949  
         H47       1.0000    0.90085   0.06009   0.49978   Biso      1.000     H          0.143042  
         H48       1.0000    0.98418   0.11816   0.49968   Biso      1.000     H          0.110959  
         H49       1.0000    0.36387   0.23097   0.49976   Biso      1.000     H          0.111295  
         H50       1.0000    0.82657   0.26785   0.49952   Biso      1.000     H          0.116001  
         H51       1.0000    0.59919   0.56009   0.00041   Biso      1.000     H          0.143044  
         H52       1.0000    0.51584   0.61815   0.00045   Biso      1.000     H          0.111111  
         H53       1.0000    0.13618   0.73096   0.99967   Biso      1.000     H          0.111128  
         H54       1.0000    0.67350   0.76785   0.99935   Biso      1.000     H          0.116016  
         H55       1.0000    0.78948   0.02494   0.75761   Biso      1.000     H          0.118718  
         H56       1.0000    0.01743   0.15577   0.75386   Biso      1.000     H          0.11164   
         H57       1.0000    0.93226   0.34246   0.07952   Biso      1.000     H          0.112906  
         H58       1.0000    0.43310   0.90850   0.69036   Biso      1.000     H          0.132411  
         H59       1.0000    0.56785   0.84241   0.57816   Biso      1.000     H          0.11303   
         H60       1.0000    0.18028   0.32542   0.80791   Biso      1.000     H          0.134704  
         H61       1.0000    0.28829   0.47498   0.74119   Biso      1.000     H          0.118883  
         H62       1.0000    0.51787   0.34443   0.74605   Biso      1.000     H          0.111846  
         H63       1.0000    0.06771   0.65752   0.92032   Biso      1.000     H          0.112913  
         H64       1.0000    0.93247   0.59129   0.80874   Biso      1.000     H          0.132103  
         H65       1.0000    0.85003   0.54429   0.89240   Biso      1.000     H          0.110326  
         H66       1.0000    0.64719   0.68588   0.88790   Biso      1.000     H          0.104679  
         H67       1.0000    0.81867   0.67448   0.80757   Biso      1.000     H          0.134666  
         H68       1.0000    0.16612   0.56027   0.81568   Biso      1.000     H          0.117003  
         H69       1.0000    0.83353   0.43976   0.81652   Biso      1.000     H          0.117423  
         H70       1.0000    0.35215   0.31409   0.88779   Biso      1.000     H          0.104499  
         H71       1.0000    0.14952   0.45568   0.89267   Biso      1.000     H          0.110261  
         H72       1.0000    0.06657   0.40868   0.80927   Biso      1.000     H          0.132383  
         H73       1.0000    0.93192   0.34248   0.92129   Biso      1.000     H          0.113063  
         H74       1.0000    0.98243   0.84422   0.75385   Biso      1.000     H          0.11154   
         H75       1.0000    0.21093   0.97496   0.75778   Biso      1.000     H          0.118557  
         H76       1.0000    0.66600   0.93964   0.68350   Biso      1.000     H          0.11707   
         H77       1.0000    0.31934   0.82527   0.69129   Biso      1.000     H          0.13521   
         H78       1.0000    0.70972   0.52484   0.74200   Biso      1.000     H          0.118887  
         H79       1.0000    0.14753   0.81401   0.61125   Biso      1.000     H          0.104999  
         H80       1.0000    0.35035   0.95558   0.60710   Biso      1.000     H          0.110552  
         N1        1.0000    0.87928   0.80985   0.99966   Biso      1.000     N          -0.138237           
         N2        1.0000    0.88910   0.43107   0.00039   Biso      1.000     N          -0.021274           
         N3        1.0000    0.12059   0.19016   0.99991   Biso      1.000     N          -0.138581           
         N4        1.0000    0.97544   0.20228   0.99990   Biso      1.000     N          -0.226132           
         N5        1.0000    0.02443   0.79772   0.99969   Biso      1.000     N          -0.225956           
         N6        1.0000    0.11109   0.26957   0.00010   Biso      1.000     N          -0.022852           
         N7        1.0000    0.88880   0.73043   0.99955   Biso      1.000     N          -0.022432           
         N8        1.0000    0.38914   0.06895   0.49954   Biso      1.000     N          -0.021521           
         N9        1.0000    0.62080   0.30985   0.49971   Biso      1.000     N          -0.138082           
         N10       1.0000    0.47565   0.29773   0.49987   Biso      1.000     N          -0.226347           
         N11       1.0000    0.61125   0.23044   0.49930   Biso      1.000     N          -0.022175           
         N12       1.0000    0.37925   0.69014   0.49967   Biso      1.000     N          -0.138077           
         N13       1.0000    0.52439   0.70227   0.49962   Biso      1.000     N          -0.225998           
         N14       1.0000    0.38874   0.76956   0.49900   Biso      1.000     N          -0.022776           
         N15       1.0000    0.61078   0.93105   0.49953   Biso      1.000     N          -0.022327           
         N16       1.0000    0.17649   0.03310   0.55786   Biso      1.000     N          -0.223422           
         N17       1.0000    0.11089   0.56894   0.99959   Biso      1.000     N          -0.021353           
         N18       1.0000    0.87043   0.09602   0.71745   Biso      1.000     N          -0.016338           
         N19       1.0000    0.96707   0.90485   0.86701   Biso      1.000     N          -0.134308           
         N20       1.0000    0.03323   0.09511   0.86684   Biso      1.000     N          -0.134576           
         N21       1.0000    0.53425   0.40502   0.36700   Biso      1.000     N          -0.132857           
         N22       1.0000    0.46199   0.44628   0.36878   Biso      1.000     N          -0.127472           
         N23       1.0000    0.37142   0.40410   0.21756   Biso      1.000     N          -0.016423           
         N24       1.0000    0.67643   0.46692   0.05862   Biso      1.000     N          -0.223719           
         N25       1.0000    0.46709   0.59506   0.36737   Biso      1.000     N          -0.133027           
         N26       1.0000    0.53967   0.55386   0.36943   Biso      1.000     N          -0.12697  
         N27       1.0000    0.63005   0.59601   0.21811   Biso      1.000     N          -0.013919           
         N28       1.0000    0.32364   0.53307   0.05760   Biso      1.000     N          -0.223707           
         N29       1.0000    0.03412   0.09493   0.13245   Biso      1.000     N          -0.133468           
         N30       1.0000    0.96172   0.05370   0.13051   Biso      1.000     N          -0.127232           
         N31       1.0000    0.87117   0.09584   0.28180   Biso      1.000     N          -0.015955           
         N32       1.0000    0.96597   0.90509   0.13237   Biso      1.000     N          -0.132677           
         N33       1.0000    0.96111   0.05383   0.86857   Biso      1.000     N          -0.126197           
         N34       1.0000    0.03859   0.94628   0.13032   Biso      1.000     N          -0.127574           
         N35       1.0000    0.82352   0.96697   0.44168   Biso      1.000     N          -0.224068           
         N36       1.0000    0.46571   0.59497   0.63292   Biso      1.000     N          -0.133455           
         N37       1.0000    0.53797   0.55371   0.63114   Biso      1.000     N          -0.126964           
         N38       1.0000    0.62846   0.59586   0.78242   Biso      1.000     N          -0.015532           
         N39       1.0000    0.32357   0.53308   0.94139   Biso      1.000     N          -0.223379           
         N40       1.0000    0.53288   0.40495   0.63255   Biso      1.000     N          -0.1329   
         N41       1.0000    0.46035   0.44615   0.63050   Biso      1.000     N          -0.127284           
         N42       1.0000    0.37000   0.40403   0.78187   Biso      1.000     N          -0.014099           
         N43       1.0000    0.67632   0.46693   0.94242   Biso      1.000     N          -0.223393           
         N44       1.0000    0.03943   0.94609   0.86883   Biso      1.000     N          -0.125987           
         N45       1.0000    0.12970   0.90392   0.71753   Biso      1.000     N          -0.015146           
         N46       1.0000    0.82343   0.96689   0.55789   Biso      1.000     N          -0.223786           
         N47       1.0000    0.12878   0.90418   0.28180   Biso      1.000     N          -0.014877           
         N48       1.0000    0.17643   0.03303   0.44165   Biso      1.000     N          -0.224426 