
##########################################################################
#               Crystallographic Information Format file
#               Produced by PyCifRW module
#
#  This is a CIF file.  CIF has been adopted by the International
#  Union of Crystallography as the standard for data archiving and
#  transmission.
#
#  For information on this file format, follow the CIF links at
#  http://www.iucr.org
##########################################################################

data_image0

_cell_length_a                          12.691
_cell_length_b                          15.545
_cell_length_c                          18.342
_cell_angle_alpha                       90
_cell_angle_beta                        90
_cell_angle_gamma                       90
_symmetry_space_group_name_H-M          'P 1'
_symmetry_int_tables_number             1
loop_
  _symmetry_equiv_pos_as_xyz
         'x, y, z' 
loop_
  _atom_site_label
  _atom_site_occupancy
  _atom_site_fract_x
  _atom_site_fract_y
  _atom_site_fract_z
  _atom_site_thermal_displace_type
  _atom_site_B_iso_or_equiv
  _atom_site_type_symbol
  _atom_site_charge
         C1        1.0000    0.97080   0.16080   0.95370   Biso      1.000     C          0.099547  
         C2        1.0000    0.93660   0.74810   0.96420   Biso      1.000     C          0.029324  
         C3        1.0000    0.95660   0.82970   0.99120   Biso      1.000     C          -0.140715           
         C4        1.0000    0.02920   0.83920   0.04630   Biso      1.000     C          0.099555  
         C5        1.0000    0.06910   0.69500   0.04560   Biso      1.000     C          0.093654  
         C6        1.0000    0.00470   0.32110   0.00850   Biso      1.000     C          -0.134661           
         C7        1.0000    0.93090   0.30500   0.95440   Biso      1.000     C          0.093653  
         C8        1.0000    0.04340   0.17030   0.00880   Biso      1.000     C          -0.140709           
         C9        1.0000    0.06340   0.25190   0.03580   Biso      1.000     C          0.029324  
         C10       1.0000    0.14790   0.26690   0.09190   Biso      1.000     C          0.564278  
         C11       1.0000    0.85210   0.73310   0.90810   Biso      1.000     C          0.564278  
         C12       1.0000    0.10140   0.99560   0.71650   Biso      1.000     C          -0.129798           
         C13       1.0000    0.02770   0.84360   0.76900   Biso      1.000     C          0.092572  
         C14       1.0000    0.97400   0.91890   0.78690   Biso      1.000     C          -0.144629           
         C15       1.0000    0.01110   0.99570   0.75920   Biso      1.000     C          0.024358  
         C16       1.0000    0.95120   0.07850   0.77550   Biso      1.000     C          0.559342  
         C17       1.0000    0.95120   0.42150   0.27550   Biso      1.000     C          0.559342  
         C18       1.0000    0.99530   0.67890   0.99150   Biso      1.000     C          -0.134661           
         C19       1.0000    0.01110   0.50430   0.25920   Biso      1.000     C          0.024356  
         C20       1.0000    0.97400   0.58110   0.28690   Biso      1.000     C          -0.144628           
         C21       1.0000    0.02770   0.65640   0.26900   Biso      1.000     C          0.092572  
         C22       1.0000    0.14990   0.91790   0.70210   Biso      1.000     C          0.086019  
         C23       1.0000    0.89860   0.00440   0.28350   Biso      1.000     C          -0.129798           
         C24       1.0000    0.85010   0.08210   0.29790   Biso      1.000     C          0.086019  
         C25       1.0000    0.97230   0.15640   0.23100   Biso      1.000     C          0.092572  
         C26       1.0000    0.52920   0.66080   0.95370   Biso      1.000     C          0.099547  
         C27       1.0000    0.45660   0.67030   0.00880   Biso      1.000     C          -0.140709           
         C28       1.0000    0.49530   0.67890   0.50850   Biso      1.000     C          -0.134661           
         C29       1.0000    0.56910   0.69500   0.45440   Biso      1.000     C          0.093653  
         C30       1.0000    0.52920   0.83920   0.45370   Biso      1.000     C          0.099547  
         C31       1.0000    0.45660   0.82970   0.50880   Biso      1.000     C          -0.140708           
         C32       1.0000    0.43660   0.74810   0.53580   Biso      1.000     C          0.029324  
         C33       1.0000    0.35210   0.73310   0.59190   Biso      1.000     C          0.564278  
         C34       1.0000    0.39860   0.00440   0.21650   Biso      1.000     C          -0.129798           
         C35       1.0000    0.35010   0.08210   0.20210   Biso      1.000     C          0.086019  
         C36       1.0000    0.47230   0.15640   0.26900   Biso      1.000     C          0.092572  
         C37       1.0000    0.52600   0.08110   0.28690   Biso      1.000     C          -0.144628           
         C38       1.0000    0.48890   0.00430   0.25920   Biso      1.000     C          0.024358  
         C39       1.0000    0.54880   0.92150   0.27550   Biso      1.000     C          0.559342  
         C40       1.0000    0.43660   0.75190   0.03580   Biso      1.000     C          0.029324  
         C41       1.0000    0.35210   0.76690   0.09190   Biso      1.000     C          0.564278  
         C42       1.0000    0.39860   0.49560   0.71650   Biso      1.000     C          -0.129798           
         C43       1.0000    0.35010   0.41790   0.70210   Biso      1.000     C          0.086019  
         C44       1.0000    0.04880   0.92150   0.22450   Biso      1.000     C          0.559342  
         C45       1.0000    0.98890   0.00430   0.24080   Biso      1.000     C          0.024358  
         C46       1.0000    0.02600   0.08110   0.21310   Biso      1.000     C          -0.144628           
         C47       1.0000    0.14990   0.58210   0.20210   Biso      1.000     C          0.086017  
         C48       1.0000    0.56910   0.80500   0.95440   Biso      1.000     C          0.093653  
         C49       1.0000    0.10140   0.50440   0.21650   Biso      1.000     C          -0.129794           
         C50       1.0000    0.06340   0.24810   0.53580   Biso      1.000     C          0.029324  
         C51       1.0000    0.47080   0.16080   0.54630   Biso      1.000     C          0.099547  
         C52       1.0000    0.43090   0.30500   0.54560   Biso      1.000     C          0.093654  
         C53       1.0000    0.50470   0.32110   0.49150   Biso      1.000     C          -0.134661           
         C54       1.0000    0.00470   0.17890   0.50850   Biso      1.000     C          -0.134661           
         C55       1.0000    0.47230   0.34360   0.76900   Biso      1.000     C          0.092572  
         C56       1.0000    0.52600   0.41890   0.78690   Biso      1.000     C          -0.144629           
         C57       1.0000    0.48890   0.49570   0.75920   Biso      1.000     C          0.024358  
         C58       1.0000    0.54880   0.57850   0.77550   Biso      1.000     C          0.559342  
         C59       1.0000    0.99530   0.82110   0.49150   Biso      1.000     C          -0.134661           
         C60       1.0000    0.54340   0.17030   0.49120   Biso      1.000     C          -0.140709           
         C61       1.0000    0.06910   0.80500   0.54560   Biso      1.000     C          0.093654  
         C62       1.0000    0.95660   0.67030   0.49120   Biso      1.000     C          -0.140716           
         C63       1.0000    0.93660   0.75190   0.46420   Biso      1.000     C          0.029325  
         C64       1.0000    0.85210   0.76690   0.40810   Biso      1.000     C          0.564278  
         C65       1.0000    0.89860   0.49560   0.78350   Biso      1.000     C          -0.129798           
         C66       1.0000    0.85010   0.41790   0.79790   Biso      1.000     C          0.086019  
         C67       1.0000    0.97230   0.34360   0.73100   Biso      1.000     C          0.092572  
         C68       1.0000    0.02600   0.41890   0.71310   Biso      1.000     C          -0.144628           
         C69       1.0000    0.98890   0.49570   0.74080   Biso      1.000     C          0.024358  
         C70       1.0000    0.04880   0.57850   0.72450   Biso      1.000     C          0.559342  
         C71       1.0000    0.02920   0.66080   0.54630   Biso      1.000     C          0.099555  
         C72       1.0000    0.14790   0.23310   0.59190   Biso      1.000     C          0.564278  
         C73       1.0000    0.56340   0.25190   0.46420   Biso      1.000     C          0.029324  
         C74       1.0000    0.60140   0.99560   0.78350   Biso      1.000     C          -0.129798           
         C75       1.0000    0.04340   0.32970   0.50880   Biso      1.000     C          -0.140715           
         C76       1.0000    0.97080   0.33920   0.45370   Biso      1.000     C          0.099555  
         C77       1.0000    0.45120   0.07850   0.72450   Biso      1.000     C          0.559342  
         C78       1.0000    0.51110   0.99570   0.74080   Biso      1.000     C          0.024358  
         C79       1.0000    0.47400   0.91890   0.71310   Biso      1.000     C          -0.144628           
         C80       1.0000    0.52770   0.84360   0.73100   Biso      1.000     C          0.092572  
         C81       1.0000    0.50470   0.17890   0.99150   Biso      1.000     C          -0.134661           
         C82       1.0000    0.43090   0.19500   0.04560   Biso      1.000     C          0.093653  
         C83       1.0000    0.47080   0.33920   0.04630   Biso      1.000     C          0.099547  
         C84       1.0000    0.54340   0.32970   0.99120   Biso      1.000     C          -0.140709           
         C85       1.0000    0.64790   0.26690   0.40810   Biso      1.000     C          0.564278  
         C86       1.0000    0.56340   0.24810   0.96420   Biso      1.000     C          0.029324  
         C87       1.0000    0.60140   0.50440   0.28350   Biso      1.000     C          -0.129798           
         C88       1.0000    0.64990   0.58210   0.29790   Biso      1.000     C          0.086019  
         C89       1.0000    0.52770   0.65640   0.23100   Biso      1.000     C          0.092572  
         C90       1.0000    0.47400   0.58110   0.21310   Biso      1.000     C          -0.144628           
         C91       1.0000    0.51110   0.50430   0.24080   Biso      1.000     C          0.024359  
         C92       1.0000    0.45120   0.42150   0.22450   Biso      1.000     C          0.559342  
         C93       1.0000    0.93090   0.19500   0.45440   Biso      1.000     C          0.093653  
         C94       1.0000    0.64990   0.91790   0.79790   Biso      1.000     C          0.086019  
         C95       1.0000    0.64790   0.23310   0.90810   Biso      1.000     C          0.564278  
         C96       1.0000    0.49530   0.82110   0.00850   Biso      1.000     C          -0.134661           
         Cd1       1.0000    0.68286   0.71257   0.81688   Biso      1.000     Cd          0.857262  
         Cd2       1.0000    0.81714   0.28743   0.31688   Biso      1.000     Cd          0.857262  
         Cd3       1.0000    0.18286   0.71257   0.68312   Biso      1.000     Cd          0.857262  
         Cd4       1.0000    0.68286   0.78743   0.31688   Biso      1.000     Cd          0.857262  
         Cd5       1.0000    0.18286   0.78743   0.18312   Biso      1.000     Cd          0.857262  
         Cd6       1.0000    0.81714   0.21257   0.81688   Biso      1.000     Cd          0.857262  
         Cd7       1.0000    0.31714   0.28743   0.18312   Biso      1.000     Cd          0.857262  
         Cd8       1.0000    0.31714   0.21257   0.68312   Biso      1.000     Cd          0.857262  
         H1        1.0000    0.59874   0.41824   0.82336   Biso      1.000     H          0.118434  
         H2        1.0000    0.87970   0.14044   0.43273   Biso      1.000     H          0.077393  
         H3        1.0000    0.01815   0.11131   0.53076   Biso      1.000     H          0.123635  
         H4        1.0000    0.45468   0.09440   0.57020   Biso      1.000     H          0.083326  
         H5        1.0000    0.58683   0.11237   0.46776   Biso      1.000     H          0.117909  
         H6        1.0000    0.63388   0.05871   0.80580   Biso      1.000     H          0.130742  
         H7        1.0000    0.72417   0.91588   0.83282   Biso      1.000     H          0.093086  
         H8        1.0000    0.49828   0.77896   0.70985   Biso      1.000     H          0.094792  
         H9        1.0000    0.40126   0.91824   0.67664   Biso      1.000     H          0.118434  
         H10       1.0000    0.98185   0.61131   0.96924   Biso      1.000     H          0.123635  
         H11       1.0000    0.12030   0.64044   0.06727   Biso      1.000     H          0.077394  
         H12       1.0000    0.91317   0.88763   0.96776   Biso      1.000     H          0.117909  
         H13       1.0000    0.50172   0.27896   0.79015   Biso      1.000     H          0.094792  
         H14       1.0000    0.86612   0.94129   0.30580   Biso      1.000     H          0.130742  
         H15       1.0000    0.77583   0.08412   0.33282   Biso      1.000     H          0.093086  
         H16       1.0000    0.00172   0.22104   0.20985   Biso      1.000     H          0.094792  
         H17       1.0000    0.09874   0.08176   0.17664   Biso      1.000     H          0.118434  
         H18       1.0000    0.95468   0.40560   0.42980   Biso      1.000     H          0.083326  
         H19       1.0000    0.48185   0.88869   0.03076   Biso      1.000     H          0.123635  
         H20       1.0000    0.62030   0.85956   0.93273   Biso      1.000     H          0.077393  
         H21       1.0000    0.54532   0.59440   0.92980   Biso      1.000     H          0.083326  
         H22       1.0000    0.41317   0.61237   0.03224   Biso      1.000     H          0.117909  
         H23       1.0000    0.36612   0.55871   0.69420   Biso      1.000     H          0.130742  
         H24       1.0000    0.27583   0.41588   0.66718   Biso      1.000     H          0.093086  
         H25       1.0000    0.04532   0.90560   0.07020   Biso      1.000     H          0.083326  
         H26       1.0000    0.08683   0.38763   0.53224   Biso      1.000     H          0.117909  
         H27       1.0000    0.48185   0.61131   0.53076   Biso      1.000     H          0.123635  
         H28       1.0000    0.22417   0.58412   0.16718   Biso      1.000     H          0.093086  
         H29       1.0000    0.95468   0.09440   0.92980   Biso      1.000     H          0.083326  
         H30       1.0000    0.08683   0.11237   0.03224   Biso      1.000     H          0.117909  
         H31       1.0000    0.13388   0.05871   0.69420   Biso      1.000     H          0.130742  
         H32       1.0000    0.22417   0.91588   0.66718   Biso      1.000     H          0.093086  
         H33       1.0000    0.99828   0.77896   0.79015   Biso      1.000     H          0.094792  
         H34       1.0000    0.90126   0.91824   0.82336   Biso      1.000     H          0.118434  
         H35       1.0000    0.13388   0.44129   0.19420   Biso      1.000     H          0.130742  
         H36       1.0000    0.51815   0.11131   0.96924   Biso      1.000     H          0.123635  
         H37       1.0000    0.37970   0.14044   0.06727   Biso      1.000     H          0.077393  
         H38       1.0000    0.45468   0.40560   0.07020   Biso      1.000     H          0.083326  
         H39       1.0000    0.58683   0.38763   0.96776   Biso      1.000     H          0.117909  
         H40       1.0000    0.63388   0.44129   0.30580   Biso      1.000     H          0.130742  
         H41       1.0000    0.72417   0.58412   0.33282   Biso      1.000     H          0.093086  
         H42       1.0000    0.49828   0.72104   0.20985   Biso      1.000     H          0.094792  
         H43       1.0000    0.40126   0.58176   0.17664   Biso      1.000     H          0.118434  
         H44       1.0000    0.98185   0.88869   0.46924   Biso      1.000     H          0.123635  
         H45       1.0000    0.12030   0.85956   0.56727   Biso      1.000     H          0.077394  
         H46       1.0000    0.04532   0.59440   0.57020   Biso      1.000     H          0.083326  
         H47       1.0000    0.91317   0.61237   0.46776   Biso      1.000     H          0.117909  
         H48       1.0000    0.86612   0.55871   0.80580   Biso      1.000     H          0.130742  
         H49       1.0000    0.77583   0.41588   0.83282   Biso      1.000     H          0.093086  
         H50       1.0000    0.00172   0.27896   0.70985   Biso      1.000     H          0.094792  
         H51       1.0000    0.09874   0.41824   0.67664   Biso      1.000     H          0.118434  
         H52       1.0000    0.87970   0.35956   0.93273   Biso      1.000     H          0.077393  
         H53       1.0000    0.01815   0.38869   0.03076   Biso      1.000     H          0.123635  
         H54       1.0000    0.51815   0.38869   0.46924   Biso      1.000     H          0.123635  
         H55       1.0000    0.62030   0.64044   0.43273   Biso      1.000     H          0.077393  
         H56       1.0000    0.27583   0.08412   0.16718   Biso      1.000     H          0.093086  
         H57       1.0000    0.36612   0.94129   0.19420   Biso      1.000     H          0.130742  
         H58       1.0000    0.41317   0.88763   0.53224   Biso      1.000     H          0.117909  
         H59       1.0000    0.54532   0.90560   0.42980   Biso      1.000     H          0.083326  
         H60       1.0000    0.37970   0.35956   0.56727   Biso      1.000     H          0.077393  
         H61       1.0000    0.59874   0.08176   0.32336   Biso      1.000     H          0.118434  
         H62       1.0000    0.50172   0.22104   0.29015   Biso      1.000     H          0.094792  
         H63       1.0000    0.90126   0.58176   0.32336   Biso      1.000     H          0.118434  
         H64       1.0000    0.99828   0.72104   0.29015   Biso      1.000     H          0.094792  
         N1        1.0000    0.61420   0.65760   0.27270   Biso      1.000     N          -0.24811  
         N2        1.0000    0.41610   0.27300   0.07450   Biso      1.000     N          -0.229965           
         N3        1.0000    0.61420   0.84240   0.77270   Biso      1.000     N          -0.24811  
         N4        1.0000    0.41610   0.22700   0.57450   Biso      1.000     N          -0.229965           
         N5        1.0000    0.08390   0.72700   0.57450   Biso      1.000     N          -0.229966           
         N6        1.0000    0.88580   0.34240   0.77270   Biso      1.000     N          -0.24811  
         N7        1.0000    0.91610   0.27300   0.42550   Biso      1.000     N          -0.229966           
         N8        1.0000    0.11420   0.65760   0.22730   Biso      1.000     N          -0.24811  
         N9        1.0000    0.58390   0.77300   0.42550   Biso      1.000     N          -0.229965           
         N10       1.0000    0.11420   0.84240   0.72730   Biso      1.000     N          -0.24811  
         N11       1.0000    0.38580   0.15760   0.22730   Biso      1.000     N          -0.24811  
         N12       1.0000    0.88580   0.15760   0.27270   Biso      1.000     N          -0.24811  
         N13       1.0000    0.38580   0.34240   0.72730   Biso      1.000     N          -0.24811  
         N14       1.0000    0.91610   0.22700   0.92550   Biso      1.000     N          -0.229965           
         N15       1.0000    0.58390   0.72700   0.92550   Biso      1.000     N          -0.229965           
         N16       1.0000    0.08390   0.77300   0.07450   Biso      1.000     N          -0.229966           
         O1        1.0000    0.32300   0.84280   0.10490   Biso      1.000     O          -0.544157           
         O2        1.0000    0.31170   0.70260   0.12160   Biso      1.000     O          -0.563271           
         O3        1.0000    0.31170   0.79740   0.62160   Biso      1.000     O          -0.563271           
         O4        1.0000    0.32300   0.65720   0.60490   Biso      1.000     O          -0.544157           
         O5        1.0000    0.49450   0.14940   0.73940   Biso      1.000     O          -0.577984           
         O6        1.0000    0.68830   0.20260   0.37840   Biso      1.000     O          -0.563271           
         O7        1.0000    0.67700   0.34280   0.39510   Biso      1.000     O          -0.544157           
         O8        1.0000    0.81170   0.70260   0.37840   Biso      1.000     O          -0.563271           
         O9        1.0000    0.82300   0.84280   0.39510   Biso      1.000     O          -0.544157           
         O10       1.0000    0.13770   0.57160   0.69670   Biso      1.000     O          -0.53239  
         O11       1.0000    0.00550   0.64940   0.73940   Biso      1.000     O          -0.577985           
         O12       1.0000    0.63770   0.92840   0.30330   Biso      1.000     O          -0.53239  
         O13       1.0000    0.36230   0.07160   0.69670   Biso      1.000     O          -0.53239  
         O14       1.0000    0.18830   0.29740   0.62160   Biso      1.000     O          -0.563271           
         O15       1.0000    0.00550   0.85060   0.23940   Biso      1.000     O          -0.577985           
         O16       1.0000    0.86230   0.42840   0.30330   Biso      1.000     O          -0.53239  
         O17       1.0000    0.13770   0.92840   0.19670   Biso      1.000     O          -0.53239  
         O18       1.0000    0.82300   0.65720   0.89510   Biso      1.000     O          -0.544157           
         O19       1.0000    0.81170   0.79740   0.87840   Biso      1.000     O          -0.563271           
         O20       1.0000    0.99450   0.14940   0.76060   Biso      1.000     O          -0.577984           
         O21       1.0000    0.86230   0.07160   0.80330   Biso      1.000     O          -0.53239  
         O22       1.0000    0.50550   0.85060   0.26060   Biso      1.000     O          -0.577984           
         O23       1.0000    0.17700   0.15720   0.60490   Biso      1.000     O          -0.544157           
         O24       1.0000    0.17700   0.34280   0.10490   Biso      1.000     O          -0.544157           
         O25       1.0000    0.67700   0.15720   0.89510   Biso      1.000     O          -0.544157           
         O26       1.0000    0.36230   0.42840   0.19670   Biso      1.000     O          -0.53239  
         O27       1.0000    0.49450   0.35060   0.23940   Biso      1.000     O          -0.577984           
         O28       1.0000    0.18830   0.20260   0.12160   Biso      1.000     O          -0.563271           
         O29       1.0000    0.50550   0.64940   0.76060   Biso      1.000     O          -0.577984           
         O30       1.0000    0.63770   0.57160   0.80330   Biso      1.000     O          -0.53239  
         O31       1.0000    0.68830   0.29740   0.87840   Biso      1.000     O          -0.563271           
         O32       1.0000    0.99450   0.35060   0.26060   Biso      1.000     O          -0.577985 