
##########################################################################
#               Crystallographic Information Format file
#               Produced by PyCifRW module
#
#  This is a CIF file.  CIF has been adopted by the International
#  Union of Crystallography as the standard for data archiving and
#  transmission.
#
#  For information on this file format, follow the CIF links at
#  http://www.iucr.org
##########################################################################

data_image0

_cell_length_a                          12.081
_cell_length_b                          15.323
_cell_length_c                          19.705
_cell_angle_alpha                       90
_cell_angle_beta                        90
_cell_angle_gamma                       90
_symmetry_space_group_name_H-M          'P 1'
_symmetry_int_tables_number             1
loop_
  _symmetry_equiv_pos_as_xyz
         'x, y, z' 
loop_
  _atom_site_label
  _atom_site_occupancy
  _atom_site_fract_x
  _atom_site_fract_y
  _atom_site_fract_z
  _atom_site_thermal_displace_type
  _atom_site_B_iso_or_equiv
  _atom_site_type_symbol
  _atom_site_charge
         C1        1.0000    0.47800   0.83870   0.44265   Biso      1.000     C          0.100588  
         C2        1.0000    0.44990   0.23597   0.46059   Biso      1.000     C          0.02839   
         C3        1.0000    0.45230   0.16310   0.50135   Biso      1.000     C          -0.142087           
         C4        1.0000    0.52200   0.16130   0.55735   Biso      1.000     C          0.100587  
         C5        1.0000    0.58900   0.29710   0.53207   Biso      1.000     C          0.08704   
         C6        1.0000    0.47880   0.69650   0.52369   Biso      1.000     C          -0.133938           
         C7        1.0000    0.41100   0.70290   0.46793   Biso      1.000     C          0.087046  
         C8        1.0000    0.54770   0.83690   0.49865   Biso      1.000     C          -0.142089           
         C9        1.0000    0.55010   0.76403   0.53941   Biso      1.000     C          0.028394  
         C10       1.0000    0.63500   0.75560   0.59493   Biso      1.000     C          0.562585  
         C11       1.0000    0.36500   0.24440   0.40507   Biso      1.000     C          0.562586  
         C12       1.0000    0.48210   0.06885   0.28869   Biso      1.000     C          -0.149768           
         C13       1.0000    0.63420   0.06552   0.18764   Biso      1.000     C          0.099246  
         C14       1.0000    0.58460   0.98827   0.20663   Biso      1.000     C          -0.136645           
         C15       1.0000    0.50630   0.99003   0.25773   Biso      1.000     C          0.028925  
         C16       1.0000    0.44500   0.90857   0.27864   Biso      1.000     C          0.561679  
         C17       1.0000    0.44500   0.59143   0.77864   Biso      1.000     C          0.561679  
         C18       1.0000    0.52120   0.30350   0.47631   Biso      1.000     C          -0.133929           
         C19       1.0000    0.50630   0.50997   0.75773   Biso      1.000     C          0.028923  
         C20       1.0000    0.58460   0.51173   0.70663   Biso      1.000     C          -0.136647           
         C21       1.0000    0.63420   0.43448   0.68764   Biso      1.000     C          0.099249  
         C22       1.0000    0.53710   0.14345   0.26683   Biso      1.000     C          0.091326  
         C23       1.0000    0.51790   0.93115   0.71131   Biso      1.000     C          -0.149768           
         C24       1.0000    0.46290   0.85655   0.73317   Biso      1.000     C          0.091326  
         C25       1.0000    0.36580   0.93448   0.81236   Biso      1.000     C          0.099246  
         C26       1.0000    0.02200   0.33870   0.44265   Biso      1.000     C          0.100588  
         C27       1.0000    0.95230   0.33690   0.49865   Biso      1.000     C          -0.142089           
         C28       1.0000    0.02120   0.30350   0.02369   Biso      1.000     C          -0.133938           
         C29       1.0000    0.08900   0.29710   0.96793   Biso      1.000     C          0.087046  
         C30       1.0000    0.02200   0.16130   0.94265   Biso      1.000     C          0.100588  
         C31       1.0000    0.95230   0.16310   0.99865   Biso      1.000     C          -0.142089           
         C32       1.0000    0.94990   0.23597   0.03941   Biso      1.000     C          0.028394  
         C33       1.0000    0.86500   0.24440   0.09493   Biso      1.000     C          0.562585  
         C34       1.0000    0.01790   0.93115   0.78869   Biso      1.000     C          -0.149768           
         C35       1.0000    0.96290   0.85655   0.76683   Biso      1.000     C          0.091326  
         C36       1.0000    0.86580   0.93448   0.68764   Biso      1.000     C          0.099246  
         C37       1.0000    0.91540   0.01173   0.70663   Biso      1.000     C          -0.136645           
         C38       1.0000    0.99370   0.00997   0.75773   Biso      1.000     C          0.028925  
         C39       1.0000    0.05500   0.09143   0.77864   Biso      1.000     C          0.561679  
         C40       1.0000    0.94990   0.26403   0.53941   Biso      1.000     C          0.028391  
         C41       1.0000    0.86500   0.25560   0.59493   Biso      1.000     C          0.562586  
         C42       1.0000    0.01790   0.56885   0.28869   Biso      1.000     C          -0.149768           
         C43       1.0000    0.96290   0.64345   0.26683   Biso      1.000     C          0.091326  
         C44       1.0000    0.55500   0.09143   0.72136   Biso      1.000     C          0.561679  
         C45       1.0000    0.49370   0.00997   0.74227   Biso      1.000     C          0.028925  
         C46       1.0000    0.41540   0.01173   0.79337   Biso      1.000     C          -0.136644           
         C47       1.0000    0.53710   0.35655   0.76683   Biso      1.000     C          0.091325  
         C48       1.0000    0.08900   0.20290   0.46793   Biso      1.000     C          0.08704   
         C49       1.0000    0.48210   0.43115   0.78869   Biso      1.000     C          -0.149765           
         C50       1.0000    0.55010   0.73597   0.03941   Biso      1.000     C          0.02839   
         C51       1.0000    0.97800   0.83870   0.05735   Biso      1.000     C          0.100588  
         C52       1.0000    0.91100   0.70290   0.03207   Biso      1.000     C          0.08704   
         C53       1.0000    0.97880   0.69650   0.97631   Biso      1.000     C          -0.133932           
         C54       1.0000    0.47880   0.80350   0.02369   Biso      1.000     C          -0.133935           
         C55       1.0000    0.86580   0.56552   0.18764   Biso      1.000     C          0.099246  
         C56       1.0000    0.91540   0.48827   0.20663   Biso      1.000     C          -0.136645           
         C57       1.0000    0.99370   0.49003   0.25773   Biso      1.000     C          0.028925  
         C58       1.0000    0.05500   0.40857   0.27864   Biso      1.000     C          0.561679  
         C59       1.0000    0.52120   0.19650   0.97631   Biso      1.000     C          -0.133937           
         C60       1.0000    0.04770   0.83690   0.00135   Biso      1.000     C          -0.142089           
         C61       1.0000    0.58900   0.20290   0.03207   Biso      1.000     C          0.087046  
         C62       1.0000    0.45230   0.33690   0.00135   Biso      1.000     C          -0.142089           
         C63       1.0000    0.44990   0.26403   0.96059   Biso      1.000     C          0.028394  
         C64       1.0000    0.36500   0.25560   0.90507   Biso      1.000     C          0.562585  
         C65       1.0000    0.51790   0.56885   0.21131   Biso      1.000     C          -0.149768           
         C66       1.0000    0.46290   0.64345   0.23317   Biso      1.000     C          0.091326  
         C67       1.0000    0.36580   0.56552   0.31236   Biso      1.000     C          0.099246  
         C68       1.0000    0.41540   0.48827   0.29337   Biso      1.000     C          -0.136645           
         C69       1.0000    0.49370   0.49003   0.24227   Biso      1.000     C          0.028925  
         C70       1.0000    0.55500   0.40857   0.22136   Biso      1.000     C          0.561679  
         C71       1.0000    0.52200   0.33870   0.05735   Biso      1.000     C          0.100588  
         C72       1.0000    0.63500   0.74440   0.09493   Biso      1.000     C          0.562586  
         C73       1.0000    0.05010   0.76403   0.96059   Biso      1.000     C          0.028393  
         C74       1.0000    0.98210   0.06885   0.21131   Biso      1.000     C          -0.149768           
         C75       1.0000    0.54770   0.66310   0.99865   Biso      1.000     C          -0.142088           
         C76       1.0000    0.47800   0.66130   0.94265   Biso      1.000     C          0.100587  
         C77       1.0000    0.94500   0.90857   0.22136   Biso      1.000     C          0.561679  
         C78       1.0000    0.00630   0.99003   0.24227   Biso      1.000     C          0.028925  
         C79       1.0000    0.08460   0.98827   0.29337   Biso      1.000     C          -0.136647           
         C80       1.0000    0.13420   0.06552   0.31236   Biso      1.000     C          0.099249  
         C81       1.0000    0.97880   0.80350   0.47631   Biso      1.000     C          -0.133937           
         C82       1.0000    0.91100   0.79710   0.53207   Biso      1.000     C          0.087046  
         C83       1.0000    0.97800   0.66130   0.55735   Biso      1.000     C          0.100588  
         C84       1.0000    0.04770   0.66310   0.50135   Biso      1.000     C          -0.142089           
         C85       1.0000    0.13500   0.75560   0.90507   Biso      1.000     C          0.562585  
         C86       1.0000    0.05010   0.73597   0.46059   Biso      1.000     C          0.028394  
         C87       1.0000    0.98210   0.43115   0.71131   Biso      1.000     C          -0.149768           
         C88       1.0000    0.03710   0.35655   0.73317   Biso      1.000     C          0.091326  
         C89       1.0000    0.13420   0.43448   0.81236   Biso      1.000     C          0.099246  
         C90       1.0000    0.08460   0.51173   0.79337   Biso      1.000     C          -0.136645           
         C91       1.0000    0.00630   0.50997   0.74227   Biso      1.000     C          0.028925  
         C92       1.0000    0.94500   0.59143   0.72136   Biso      1.000     C          0.561679  
         C93       1.0000    0.41100   0.79710   0.96793   Biso      1.000     C          0.087045  
         C94       1.0000    0.03710   0.14345   0.23317   Biso      1.000     C          0.091326  
         C95       1.0000    0.13500   0.74440   0.40507   Biso      1.000     C          0.562585  
         C96       1.0000    0.02120   0.19650   0.52369   Biso      1.000     C          -0.133929           
         Cd1       1.0000    0.18885   0.27225   0.32128   Biso      1.000     Cd          0.856711  
         Cd2       1.0000    0.31115   0.72775   0.82128   Biso      1.000     Cd          0.856711  
         Cd3       1.0000    0.68885   0.27225   0.17872   Biso      1.000     Cd          0.856711  
         Cd4       1.0000    0.18885   0.22775   0.82128   Biso      1.000     Cd          0.856711  
         Cd5       1.0000    0.68885   0.22775   0.67872   Biso      1.000     Cd          0.856711  
         Cd6       1.0000    0.31115   0.77225   0.32128   Biso      1.000     Cd          0.856711  
         Cd7       1.0000    0.81115   0.72775   0.67872   Biso      1.000     Cd          0.856711  
         Cd8       1.0000    0.81115   0.77225   0.17872   Biso      1.000     Cd          0.856711  
         H1        1.0000    0.89306   0.42385   0.18114   Biso      1.000     H          0.132855  
         H2        1.0000    0.35127   0.85233   0.95523   Biso      1.000     H          0.080306  
         H3        1.0000    0.47632   0.86434   0.05695   Biso      1.000     H          0.118384  
         H4        1.0000    0.97621   0.89850   0.09175   Biso      1.000     H          0.082184  
         H5        1.0000    0.10270   0.89525   0.98904   Biso      1.000     H          0.11516   
         H6        1.0000    0.91819   0.07168   0.16880   Biso      1.000     H          0.121889  
         H7        1.0000    0.01963   0.20895   0.20791   Biso      1.000     H          0.089194  
         H8        1.0000    0.19847   0.06597   0.35472   Biso      1.000     H          0.092562  
         H9        1.0000    0.10694   0.92385   0.31886   Biso      1.000     H          0.132855  
         H10       1.0000    0.52368   0.36434   0.44305   Biso      1.000     H          0.118384  
         H11       1.0000    0.64873   0.35233   0.54477   Biso      1.000     H          0.080306  
         H12       1.0000    0.39730   0.10475   0.48904   Biso      1.000     H          0.11516   
         H13       1.0000    0.80153   0.56597   0.14528   Biso      1.000     H          0.092562  
         H14       1.0000    0.58181   0.92832   0.66880   Biso      1.000     H          0.121889  
         H15       1.0000    0.48037   0.79105   0.70791   Biso      1.000     H          0.089194  
         H16       1.0000    0.30153   0.93403   0.85472   Biso      1.000     H          0.092562  
         H17       1.0000    0.39306   0.07615   0.81886   Biso      1.000     H          0.132855  
         H18       1.0000    0.47621   0.60150   0.90825   Biso      1.000     H          0.082184  
         H19       1.0000    0.02368   0.13566   0.55695   Biso      1.000     H          0.118384  
         H20       1.0000    0.14873   0.14767   0.45523   Biso      1.000     H          0.080306  
         H21       1.0000    0.02379   0.39850   0.40825   Biso      1.000     H          0.082184  
         H22       1.0000    0.89730   0.39525   0.51096   Biso      1.000     H          0.11516   
         H23       1.0000    0.08181   0.57168   0.33120   Biso      1.000     H          0.121889  
         H24       1.0000    0.98037   0.70895   0.29209   Biso      1.000     H          0.089194  
         H25       1.0000    0.52379   0.10150   0.59175   Biso      1.000     H          0.082184  
         H26       1.0000    0.60270   0.60475   0.01096   Biso      1.000     H          0.11516   
         H27       1.0000    0.02368   0.36434   0.05695   Biso      1.000     H          0.118384  
         H28       1.0000    0.51963   0.29105   0.79209   Biso      1.000     H          0.089194  
         H29       1.0000    0.47621   0.89850   0.40825   Biso      1.000     H          0.082184  
         H30       1.0000    0.60270   0.89525   0.51096   Biso      1.000     H          0.11516   
         H31       1.0000    0.41819   0.07168   0.33120   Biso      1.000     H          0.121889  
         H32       1.0000    0.51963   0.20895   0.29209   Biso      1.000     H          0.089194  
         H33       1.0000    0.69847   0.06597   0.14528   Biso      1.000     H          0.092562  
         H34       1.0000    0.60694   0.92385   0.18114   Biso      1.000     H          0.132855  
         H35       1.0000    0.41819   0.42832   0.83120   Biso      1.000     H          0.121888  
         H36       1.0000    0.97632   0.86434   0.44305   Biso      1.000     H          0.118384  
         H37       1.0000    0.85127   0.85233   0.54477   Biso      1.000     H          0.080305  
         H38       1.0000    0.97621   0.60150   0.59175   Biso      1.000     H          0.082184  
         H39       1.0000    0.10270   0.60475   0.48904   Biso      1.000     H          0.11516   
         H40       1.0000    0.91819   0.42832   0.66880   Biso      1.000     H          0.121889  
         H41       1.0000    0.01963   0.29105   0.70791   Biso      1.000     H          0.089194  
         H42       1.0000    0.19847   0.43403   0.85472   Biso      1.000     H          0.092562  
         H43       1.0000    0.10694   0.57615   0.81886   Biso      1.000     H          0.132855  
         H44       1.0000    0.52368   0.13566   0.94305   Biso      1.000     H          0.118384  
         H45       1.0000    0.64873   0.14767   0.04477   Biso      1.000     H          0.080305  
         H46       1.0000    0.52379   0.39850   0.09175   Biso      1.000     H          0.082184  
         H47       1.0000    0.39730   0.39525   0.98904   Biso      1.000     H          0.11516   
         H48       1.0000    0.58181   0.57168   0.16880   Biso      1.000     H          0.121889  
         H49       1.0000    0.48037   0.70895   0.20791   Biso      1.000     H          0.089194  
         H50       1.0000    0.30153   0.56597   0.35472   Biso      1.000     H          0.092562  
         H51       1.0000    0.39306   0.42385   0.31886   Biso      1.000     H          0.132855  
         H52       1.0000    0.35127   0.64767   0.45523   Biso      1.000     H          0.080305  
         H53       1.0000    0.47632   0.63566   0.55695   Biso      1.000     H          0.118384  
         H54       1.0000    0.97632   0.63566   0.94305   Biso      1.000     H          0.118384  
         H55       1.0000    0.14873   0.35233   0.95523   Biso      1.000     H          0.080305  
         H56       1.0000    0.98037   0.79105   0.79209   Biso      1.000     H          0.089194  
         H57       1.0000    0.08181   0.92832   0.83120   Biso      1.000     H          0.121889  
         H58       1.0000    0.89730   0.10475   0.01096   Biso      1.000     H          0.11516   
         H59       1.0000    0.02379   0.10150   0.90825   Biso      1.000     H          0.082184  
         H60       1.0000    0.85127   0.64767   0.04477   Biso      1.000     H          0.080306  
         H61       1.0000    0.89306   0.07615   0.68114   Biso      1.000     H          0.132855  
         H62       1.0000    0.80153   0.93403   0.64528   Biso      1.000     H          0.092562  
         H63       1.0000    0.60694   0.57615   0.68114   Biso      1.000     H          0.132855  
         H64       1.0000    0.69847   0.43403   0.64528   Biso      1.000     H          0.092562  
         N1        1.0000    0.11150   0.35744   0.78364   Biso      1.000     N          -0.243718           
         N2        1.0000    0.91100   0.72758   0.57367   Biso      1.000     N          -0.229649           
         N3        1.0000    0.11150   0.14256   0.28364   Biso      1.000     N          -0.243718           
         N4        1.0000    0.91100   0.77242   0.07367   Biso      1.000     N          -0.229649           
         N5        1.0000    0.58900   0.27242   0.07367   Biso      1.000     N          -0.229649           
         N6        1.0000    0.38850   0.64256   0.28364   Biso      1.000     N          -0.243718           
         N7        1.0000    0.41100   0.72758   0.92633   Biso      1.000     N          -0.229649           
         N8        1.0000    0.61150   0.35744   0.71636   Biso      1.000     N          -0.243718           
         N9        1.0000    0.08900   0.22758   0.92633   Biso      1.000     N          -0.229649           
         N10       1.0000    0.61150   0.14256   0.21636   Biso      1.000     N          -0.243718           
         N11       1.0000    0.88850   0.85744   0.71636   Biso      1.000     N          -0.243718           
         N12       1.0000    0.38850   0.85744   0.78364   Biso      1.000     N          -0.243718           
         N13       1.0000    0.88850   0.64256   0.21636   Biso      1.000     N          -0.243718           
         N14       1.0000    0.41100   0.77242   0.42633   Biso      1.000     N          -0.229649           
         N15       1.0000    0.08900   0.27242   0.42633   Biso      1.000     N          -0.229649           
         N16       1.0000    0.58900   0.22758   0.57367   Biso      1.000     N          -0.229649           
         O1        1.0000    0.81535   0.32266   0.61400   Biso      1.000     O          -0.567155           
         O2        1.0000    0.84470   0.18063   0.61698   Biso      1.000     O          -0.53088  
         O3        1.0000    0.84470   0.31937   0.11698   Biso      1.000     O          -0.53088  
         O4        1.0000    0.81535   0.17734   0.11400   Biso      1.000     O          -0.567155           
         O5        1.0000    0.98910   0.83596   0.23066   Biso      1.000     O          -0.575061           
         O6        1.0000    0.15530   0.68063   0.88302   Biso      1.000     O          -0.53088  
         O7        1.0000    0.18465   0.82266   0.88600   Biso      1.000     O          -0.567155           
         O8        1.0000    0.34470   0.18063   0.88302   Biso      1.000     O          -0.53088  
         O9        1.0000    0.31535   0.32266   0.88600   Biso      1.000     O          -0.567155           
         O10       1.0000    0.64758   0.41786   0.19421   Biso      1.000     O          -0.54013  
         O11       1.0000    0.51090   0.33596   0.23066   Biso      1.000     O          -0.575061           
         O12       1.0000    0.14758   0.08214   0.80579   Biso      1.000     O          -0.54013  
         O13       1.0000    0.85242   0.91786   0.19421   Biso      1.000     O          -0.54013  
         O14       1.0000    0.65530   0.81937   0.11698   Biso      1.000     O          -0.53088  
         O15       1.0000    0.51090   0.16404   0.73066   Biso      1.000     O          -0.575061           
         O16       1.0000    0.35242   0.58214   0.80579   Biso      1.000     O          -0.54013  
         O17       1.0000    0.64758   0.08214   0.69421   Biso      1.000     O          -0.54013  
         O18       1.0000    0.31535   0.17734   0.38600   Biso      1.000     O          -0.567155           
         O19       1.0000    0.34470   0.31937   0.38302   Biso      1.000     O          -0.53088  
         O20       1.0000    0.48910   0.83596   0.26934   Biso      1.000     O          -0.575061           
         O21       1.0000    0.35242   0.91786   0.30579   Biso      1.000     O          -0.54013  
         O22       1.0000    0.01090   0.16404   0.76934   Biso      1.000     O          -0.575061           
         O23       1.0000    0.68465   0.67734   0.11400   Biso      1.000     O          -0.567155           
         O24       1.0000    0.68465   0.82266   0.61400   Biso      1.000     O          -0.567155           
         O25       1.0000    0.18465   0.67734   0.38600   Biso      1.000     O          -0.567155           
         O26       1.0000    0.85242   0.58214   0.69421   Biso      1.000     O          -0.54013  
         O27       1.0000    0.98910   0.66404   0.73066   Biso      1.000     O          -0.575061           
         O28       1.0000    0.65530   0.68063   0.61698   Biso      1.000     O          -0.53088  
         O29       1.0000    0.01090   0.33596   0.26934   Biso      1.000     O          -0.575061           
         O30       1.0000    0.14758   0.41786   0.30579   Biso      1.000     O          -0.54013  
         O31       1.0000    0.15530   0.81937   0.38302   Biso      1.000     O          -0.53088  
         O32       1.0000    0.48910   0.66404   0.76934   Biso      1.000     O          -0.575061 