
##########################################################################
#               Crystallographic Information Format file
#               Produced by PyCifRW module
#
#  This is a CIF file.  CIF has been adopted by the International
#  Union of Crystallography as the standard for data archiving and
#  transmission.
#
#  For information on this file format, follow the CIF links at
#  http://www.iucr.org
##########################################################################

data_image0

_cell_length_a                          18.765
_cell_length_b                          18.765
_cell_length_c                          26.7538
_cell_angle_alpha                       110.53
_cell_angle_beta                        110.53
_cell_angle_gamma                       90.0001
_symmetry_space_group_name_H-M          'P 1'
_symmetry_int_tables_number             1
loop_
  _symmetry_equiv_pos_as_xyz
         'x, y, z' 
loop_
  _atom_site_label
  _atom_site_occupancy
  _atom_site_fract_x
  _atom_site_fract_y
  _atom_site_fract_z
  _atom_site_thermal_displace_type
  _atom_site_B_iso_or_equiv
  _atom_site_type_symbol
  _atom_site_charge
         C1        1.0000    0.91083   0.04293   0.55366   Biso      1.000     C          0.617871  
         C2        1.0000    0.98177   0.44187   0.08034   Biso      1.000     C          -0.145545           
         C3        1.0000    0.08917   0.48927   0.44634   Biso      1.000     C          0.616313  
         C4        1.0000    0.24238   0.88908   0.35816   Biso      1.000     C          -0.133283           
         C5        1.0000    0.27385   0.93635   0.41630   Biso      1.000     C          -0.019923           
         C6        1.0000    0.12700   0.69540   0.13540   Biso      1.000     C          -0.126932           
         C7        1.0000    0.09857   0.63847   0.08034   Biso      1.000     C          -0.145709           
         C8        1.0000    0.35717   0.95707   0.44634   Biso      1.000     C          0.616532  
         C9        1.0000    0.88908   0.11578   0.35816   Biso      1.000     C          -0.138154           
         C10       1.0000    0.93635   0.14245   0.41630   Biso      1.000     C          -0.022315           
         C11       1.0000    0.00840   0.44000   0.13540   Biso      1.000     C          -0.12627  
         C12       1.0000    0.69540   0.00840   0.13540   Biso      1.000     C          -0.127024           
         C13       1.0000    0.95707   0.08917   0.44634   Biso      1.000     C          0.617871  
         C14       1.0000    0.46908   0.24238   0.35816   Biso      1.000     C          -0.136788           
         C15       1.0000    0.47995   0.27385   0.41630   Biso      1.000     C          -0.021909           
         C16       1.0000    0.44000   0.12700   0.13540   Biso      1.000     C          -0.126633           
         C17       1.0000    0.44187   0.09857   0.08034   Biso      1.000     C          -0.146582           
         C18       1.0000    0.48927   0.35717   0.44634   Biso      1.000     C          0.616933  
         C19       1.0000    0.16522   0.46392   0.33044   Biso      1.000     C          0.161729  
         C20       1.0000    0.22159   0.48209   0.44318   Biso      1.000     C          -0.102957           
         C21       1.0000    0.11025   0.44035   0.22050   Biso      1.000     C          -0.128032           
         C22       1.0000    0.63847   0.98177   0.08034   Biso      1.000     C          -0.144272           
         C23       1.0000    0.14245   0.47995   0.41630   Biso      1.000     C          -0.018982           
         C24       1.0000    0.11578   0.46908   0.35816   Biso      1.000     C          -0.133419           
         C25       1.0000    0.04293   0.64283   0.55366   Biso      1.000     C          0.616532  
         C26       1.0000    0.52005   0.72615   0.58370   Biso      1.000     C          -0.021909           
         C27       1.0000    0.56000   0.87300   0.86460   Biso      1.000     C          -0.126636           
         C28       1.0000    0.55813   0.90143   0.91966   Biso      1.000     C          -0.146585           
         C29       1.0000    0.75762   0.53092   0.64184   Biso      1.000     C          -0.136788           
         C30       1.0000    0.72615   0.52005   0.58370   Biso      1.000     C          -0.021909           
         C31       1.0000    0.87300   0.56000   0.86460   Biso      1.000     C          -0.126633           
         C32       1.0000    0.90143   0.55813   0.91966   Biso      1.000     C          -0.146582           
         C33       1.0000    0.64283   0.51073   0.55366   Biso      1.000     C          0.616933  
         C34       1.0000    0.88422   0.11092   0.64184   Biso      1.000     C          -0.138153           
         C35       1.0000    0.85755   0.06365   0.58370   Biso      1.000     C          -0.022315           
         C36       1.0000    0.99160   0.30460   0.86460   Biso      1.000     C          -0.127024           
         C37       1.0000    0.01823   0.36153   0.91966   Biso      1.000     C          -0.144272           
         C38       1.0000    0.53092   0.88422   0.64184   Biso      1.000     C          -0.133427           
         C39       1.0000    0.52005   0.85755   0.58370   Biso      1.000     C          -0.018981           
         C40       1.0000    0.56000   0.99160   0.86460   Biso      1.000     C          -0.126273           
         C41       1.0000    0.55813   0.01823   0.91966   Biso      1.000     C          -0.145549           
         C42       1.0000    0.51073   0.91083   0.55366   Biso      1.000     C          0.616312  
         C43       1.0000    0.11092   0.75762   0.64184   Biso      1.000     C          -0.133283           
         C44       1.0000    0.06365   0.72615   0.58370   Biso      1.000     C          -0.019922           
         C45       1.0000    0.30460   0.87300   0.86460   Biso      1.000     C          -0.126932           
         C46       1.0000    0.36153   0.90143   0.91966   Biso      1.000     C          -0.145709           
         C47       1.0000    0.13588   0.45328   0.27176   Biso      1.000     C          -0.121813           
         C48       1.0000    0.53092   0.75762   0.64184   Biso      1.000     C          -0.136788           
         C49       1.0000    0.07992   0.43122   0.15984   Biso      1.000     C          0.16246   
         C50       1.0000    0.16522   0.86652   0.33044   Biso      1.000     C          0.162428  
         C51       1.0000    0.88975   0.21985   0.77950   Biso      1.000     C          -0.127011           
         C52       1.0000    0.86412   0.18152   0.72824   Biso      1.000     C          -0.122498           
         C53       1.0000    0.92008   0.27138   0.84016   Biso      1.000     C          0.163128  
         C54       1.0000    0.97303   0.38773   0.94606   Biso      1.000     C          0.108949  
         C55       1.0000    0.13348   0.83478   0.66956   Biso      1.000     C          0.162428  
         C56       1.0000    0.03891   0.77841   0.55682   Biso      1.000     C          -0.10145  
         C57       1.0000    0.21985   0.88975   0.77950   Biso      1.000     C          -0.127011           
         C58       1.0000    0.18152   0.86412   0.72824   Biso      1.000     C          -0.122499           
         C59       1.0000    0.27138   0.92008   0.84016   Biso      1.000     C          0.163125  
         C60       1.0000    0.77841   0.03891   0.55682   Biso      1.000     C          -0.10145  
         C61       1.0000    0.38773   0.97303   0.94606   Biso      1.000     C          0.108949  
         C62       1.0000    0.51791   0.77841   0.55682   Biso      1.000     C          -0.102957           
         C63       1.0000    0.55965   0.88975   0.77950   Biso      1.000     C          -0.128036           
         C64       1.0000    0.54672   0.86412   0.72824   Biso      1.000     C          -0.121813           
         C65       1.0000    0.56878   0.92008   0.84016   Biso      1.000     C          0.1625    
         C66       1.0000    0.55833   0.97303   0.94606   Biso      1.000     C          0.110548  
         C67       1.0000    0.00000   0.46530   0.00000   Biso      1.000     C          -0.046893           
         C68       1.0000    0.00000   0.53470   0.00000   Biso      1.000     C          -0.046856           
         C69       1.0000    0.46530   0.00000   0.00000   Biso      1.000     C          -0.046893           
         C70       1.0000    0.53470   0.00000   0.00000   Biso      1.000     C          -0.046859           
         C71       1.0000    0.53608   0.83478   0.66956   Biso      1.000     C          0.161748  
         C72       1.0000    0.83478   0.13348   0.66956   Biso      1.000     C          0.162419  
         C73       1.0000    0.97303   0.55833   0.94606   Biso      1.000     C          0.110503  
         C74       1.0000    0.92008   0.56878   0.84016   Biso      1.000     C          0.16246   
         C75       1.0000    0.22159   0.96109   0.44318   Biso      1.000     C          -0.10145  
         C76       1.0000    0.11025   0.78015   0.22050   Biso      1.000     C          -0.127011           
         C77       1.0000    0.13588   0.81848   0.27176   Biso      1.000     C          -0.122499           
         C78       1.0000    0.07992   0.72862   0.15984   Biso      1.000     C          0.163125  
         C79       1.0000    0.02697   0.61227   0.05394   Biso      1.000     C          0.108946  
         C80       1.0000    0.46392   0.16522   0.33044   Biso      1.000     C          0.161742  
         C81       1.0000    0.48209   0.22159   0.44318   Biso      1.000     C          -0.102957           
         C82       1.0000    0.44035   0.11025   0.22050   Biso      1.000     C          -0.128032           
         C83       1.0000    0.45328   0.13588   0.27176   Biso      1.000     C          -0.121814           
         C84       1.0000    0.43122   0.07992   0.15984   Biso      1.000     C          0.16246   
         C85       1.0000    0.44167   0.02697   0.05394   Biso      1.000     C          0.110506  
         C86       1.0000    0.86652   0.16522   0.33044   Biso      1.000     C          0.162419  
         C87       1.0000    0.96109   0.22159   0.44318   Biso      1.000     C          -0.10145  
         C88       1.0000    0.78015   0.11025   0.22050   Biso      1.000     C          -0.127011           
         C89       1.0000    0.81848   0.13588   0.27176   Biso      1.000     C          -0.122498           
         C90       1.0000    0.72862   0.07992   0.15984   Biso      1.000     C          0.163128  
         C91       1.0000    0.61227   0.02697   0.05394   Biso      1.000     C          0.108946  
         C92       1.0000    0.83478   0.53608   0.66956   Biso      1.000     C          0.161742  
         C93       1.0000    0.77841   0.51791   0.55682   Biso      1.000     C          -0.102957           
         C94       1.0000    0.88975   0.55965   0.77950   Biso      1.000     C          -0.128032           
         C95       1.0000    0.86412   0.54672   0.72824   Biso      1.000     C          -0.121814           
         C96       1.0000    0.02697   0.44167   0.05394   Biso      1.000     C          0.110501  
         C97       1.0000    0.04293   0.91083   0.55366   Biso      1.000     C          0.617871  
         C98       1.0000    0.51073   0.64283   0.55366   Biso      1.000     C          0.616933  
         C99       1.0000    0.30460   0.99160   0.86460   Biso      1.000     C          -0.126989           
         C100      1.0000    0.48927   0.08917   0.44634   Biso      1.000     C          0.616312  
         C101      1.0000    0.44187   0.98177   0.08034   Biso      1.000     C          -0.145506           
         C102      1.0000    0.44000   0.00840   0.13540   Biso      1.000     C          -0.126237           
         C103      1.0000    0.47995   0.14245   0.41630   Biso      1.000     C          -0.018982           
         C104      1.0000    0.46908   0.11578   0.35816   Biso      1.000     C          -0.133421           
         C105      1.0000    0.08917   0.95707   0.44634   Biso      1.000     C          0.617871  
         C106      1.0000    0.98177   0.63847   0.08034   Biso      1.000     C          -0.144235           
         C107      1.0000    0.00840   0.69540   0.13540   Biso      1.000     C          -0.126986           
         C108      1.0000    0.14245   0.93635   0.41630   Biso      1.000     C          -0.022316           
         C109      1.0000    0.11578   0.88908   0.35816   Biso      1.000     C          -0.138148           
         C110      1.0000    0.09857   0.44187   0.08034   Biso      1.000     C          -0.146536           
         C111      1.0000    0.12700   0.44000   0.13540   Biso      1.000     C          -0.1266   
         C112      1.0000    0.27385   0.47995   0.41630   Biso      1.000     C          -0.02191  
         C113      1.0000    0.24238   0.46908   0.35816   Biso      1.000     C          -0.136773           
         C114      1.0000    0.36153   0.01823   0.91966   Biso      1.000     C          -0.144232           
         C115      1.0000    0.88908   0.24238   0.35816   Biso      1.000     C          -0.133267           
         C116      1.0000    0.93635   0.27385   0.41630   Biso      1.000     C          -0.019924           
         C117      1.0000    0.35717   0.48927   0.44634   Biso      1.000     C          0.616933  
         C118      1.0000    0.63847   0.09857   0.08034   Biso      1.000     C          -0.145671           
         C119      1.0000    0.69540   0.12700   0.13540   Biso      1.000     C          -0.126897           
         C120      1.0000    0.06365   0.85755   0.58370   Biso      1.000     C          -0.022316           
         C121      1.0000    0.11092   0.88422   0.64184   Biso      1.000     C          -0.138149           
         C122      1.0000    0.64283   0.04293   0.55366   Biso      1.000     C          0.616532  
         C123      1.0000    0.87300   0.30460   0.86460   Biso      1.000     C          -0.1269   
         C124      1.0000    0.72615   0.06365   0.58370   Biso      1.000     C          -0.019925           
         C125      1.0000    0.75762   0.11092   0.64184   Biso      1.000     C          -0.133267           
         C126      1.0000    0.90143   0.36153   0.91966   Biso      1.000     C          -0.145669           
         C127      1.0000    0.01823   0.55813   0.91966   Biso      1.000     C          -0.145505           
         C128      1.0000    0.99160   0.56000   0.86460   Biso      1.000     C          -0.126237           
         C129      1.0000    0.85755   0.52005   0.58370   Biso      1.000     C          -0.018982           
         C130      1.0000    0.88422   0.53092   0.64184   Biso      1.000     C          -0.133421           
         C131      1.0000    0.91083   0.51073   0.55366   Biso      1.000     C          0.616313  
         C132      1.0000    0.95707   0.35717   0.44634   Biso      1.000     C          0.616532  
         H1        1.0000    0.81910   0.28980   0.84460   Biso      1.000     H          0.111244  
         H2        1.0000    0.86670   0.38150   0.93800   Biso      1.000     H          0.103207  
         H3        1.0000    0.12770   0.93780   0.66240   Biso      1.000     H          0.129083  
         H4        1.0000    0.81910   0.55480   0.84460   Biso      1.000     H          0.111403  
         H5        1.0000    0.28980   0.02550   0.84460   Biso      1.000     H          0.11084   
         H6        1.0000    0.53470   0.72460   0.66240   Biso      1.000     H          0.128284  
         H7        1.0000    0.55480   0.81910   0.84460   Biso      1.000     H          0.111404  
         H8        1.0000    0.72460   0.12770   0.66240   Biso      1.000     H          0.125731  
         H9        1.0000    0.55650   0.86670   0.93800   Biso      1.000     H          0.103301  
         H10       1.0000    0.72460   0.53470   0.66240   Biso      1.000     H          0.128284  
         H11       1.0000    0.38150   0.07130   0.93800   Biso      1.000     H          0.102422  
         H12       1.0000    0.07130   0.55650   0.93800   Biso      1.000     H          0.102222  
         H13       1.0000    0.44520   0.97450   0.15540   Biso      1.000     H          0.111679  
         H14       1.0000    0.93780   0.53470   0.66240   Biso      1.000     H          0.125873  
         H15       1.0000    0.61850   0.13330   0.06200   Biso      1.000     H          0.103207  
         H16       1.0000    0.71020   0.18090   0.15540   Biso      1.000     H          0.111243  
         H17       1.0000    0.87230   0.27540   0.33760   Biso      1.000     H          0.125731  
         H18       1.0000    0.44350   0.92870   0.06200   Biso      1.000     H          0.102222  
         H19       1.0000    0.46530   0.06220   0.33760   Biso      1.000     H          0.125873  
         H20       1.0000    0.92870   0.61850   0.06200   Biso      1.000     H          0.102422  
         H21       1.0000    0.97450   0.71020   0.15540   Biso      1.000     H          0.11084   
         H22       1.0000    0.06220   0.87230   0.33760   Biso      1.000     H          0.129083  
         H23       1.0000    0.13330   0.44350   0.06200   Biso      1.000     H          0.103297  
         H24       1.0000    0.27540   0.46530   0.33760   Biso      1.000     H          0.128283  
         H25       1.0000    0.86670   0.55650   0.93800   Biso      1.000     H          0.1033    
         H26       1.0000    0.18090   0.44520   0.15540   Biso      1.000     H          0.111401  
         H27       1.0000    0.02550   0.55480   0.84460   Biso      1.000     H          0.111679  
         H28       1.0000    0.93780   0.12770   0.66240   Biso      1.000     H          0.129084  
         H29       1.0000    0.06220   0.46530   0.33760   Biso      1.000     H          0.125873  
         H30       1.0000    0.07130   0.38150   0.93800   Biso      1.000     H          0.102425  
         H31       1.0000    0.51470   0.75900   0.51800   Biso      1.000     H          0.12294   
         H32       1.0000    0.00330   0.75900   0.51800   Biso      1.000     H          0.122317  
         H33       1.0000    0.75900   0.00330   0.51800   Biso      1.000     H          0.122317  
         H34       1.0000    0.02550   0.28980   0.84460   Biso      1.000     H          0.110843  
         H35       1.0000    0.99670   0.24100   0.48200   Biso      1.000     H          0.122317  
         H36       1.0000    0.48530   0.24100   0.48200   Biso      1.000     H          0.12294   
         H37       1.0000    0.24100   0.99670   0.48200   Biso      1.000     H          0.122317  
         H38       1.0000    0.24100   0.48530   0.48200   Biso      1.000     H          0.12294   
         H39       1.0000    0.44350   0.13330   0.06200   Biso      1.000     H          0.1033    
         H40       1.0000    0.44520   0.18090   0.15540   Biso      1.000     H          0.111403  
         H41       1.0000    0.46530   0.27540   0.33760   Biso      1.000     H          0.128284  
         H42       1.0000    0.61850   0.92870   0.06200   Biso      1.000     H          0.102425  
         H43       1.0000    0.75900   0.51470   0.51800   Biso      1.000     H          0.12294   
         H44       1.0000    0.87230   0.06220   0.33760   Biso      1.000     H          0.129084  
         H45       1.0000    0.71020   0.97450   0.15540   Biso      1.000     H          0.110843  
         H46       1.0000    0.53470   0.93780   0.66240   Biso      1.000     H          0.125873  
         H47       1.0000    0.55650   0.07130   0.93800   Biso      1.000     H          0.102225  
         H48       1.0000    0.12770   0.72460   0.66240   Biso      1.000     H          0.125732  
         H49       1.0000    0.28980   0.81910   0.84460   Biso      1.000     H          0.111246  
         H50       1.0000    0.55480   0.02550   0.84460   Biso      1.000     H          0.111682  
         H51       1.0000    0.97450   0.44520   0.15540   Biso      1.000     H          0.111681  
         H52       1.0000    0.92870   0.44350   0.06200   Biso      1.000     H          0.102225  
         H53       1.0000    0.27540   0.87230   0.33760   Biso      1.000     H          0.125732  
         H54       1.0000    0.18090   0.71020   0.15540   Biso      1.000     H          0.111246  
         H55       1.0000    0.13330   0.61850   0.06200   Biso      1.000     H          0.10321   
         H56       1.0000    0.38150   0.86670   0.93800   Biso      1.000     H          0.10321   
         O1        1.0000    0.97744   0.07974   0.57748   Biso      1.000     O          -0.558015           
         O2        1.0000    0.07974   0.97744   0.57748   Biso      1.000     O          -0.558015           
         O3        1.0000    0.51376   0.62007   0.50212   Biso      1.000     O          -0.597346           
         O4        1.0000    0.49774   0.60004   0.57748   Biso      1.000     O          -0.557987           
         O5        1.0000    0.62007   0.51376   0.50212   Biso      1.000     O          -0.597346           
         O6        1.0000    0.60004   0.49774   0.57748   Biso      1.000     O          -0.557987           
         O7        1.0000    0.88205   0.98836   0.50212   Biso      1.000     O          -0.59782  
         O8        1.0000    0.51376   0.88205   0.50212   Biso      1.000     O          -0.597422           
         O9        1.0000    0.11795   0.48624   0.49788   Biso      1.000     O          -0.597422           
         O10       1.0000    0.92026   0.02256   0.42252   Biso      1.000     O          -0.558015           
         O11       1.0000    0.01164   0.11795   0.49788   Biso      1.000     O          -0.59782  
         O12       1.0000    0.39996   0.92026   0.42252   Biso      1.000     O          -0.558386           
         O13       1.0000    0.37993   0.01164   0.49788   Biso      1.000     O          -0.597492           
         O14       1.0000    0.02256   0.50226   0.42252   Biso      1.000     O          -0.55833  
         O15       1.0000    0.07974   0.60004   0.57748   Biso      1.000     O          -0.558386           
         O16       1.0000    0.98836   0.88205   0.50212   Biso      1.000     O          -0.59782  
         O17       1.0000    0.98836   0.62007   0.50212   Biso      1.000     O          -0.597492           
         O18       1.0000    0.49774   0.97744   0.57748   Biso      1.000     O          -0.558328           
         O19       1.0000    0.60004   0.07974   0.57748   Biso      1.000     O          -0.558387           
         O20       1.0000    0.50226   0.39996   0.42252   Biso      1.000     O          -0.557987           
         O21       1.0000    0.97744   0.49774   0.57748   Biso      1.000     O          -0.55833  
         O22       1.0000    0.48624   0.37993   0.49788   Biso      1.000     O          -0.597346           
         O23       1.0000    0.62007   0.98836   0.50212   Biso      1.000     O          -0.597491           
         O24       1.0000    0.39996   0.50226   0.42252   Biso      1.000     O          -0.557988           
         O25       1.0000    0.11795   0.01164   0.49788   Biso      1.000     O          -0.59782  
         O26       1.0000    0.02256   0.92026   0.42252   Biso      1.000     O          -0.558015           
         O27       1.0000    0.37993   0.48624   0.49788   Biso      1.000     O          -0.597346           
         O28       1.0000    0.50226   0.02256   0.42252   Biso      1.000     O          -0.558328           
         O29       1.0000    0.01164   0.37993   0.49788   Biso      1.000     O          -0.597492           
         O30       1.0000    0.92026   0.39996   0.42252   Biso      1.000     O          -0.558387           
         O31       1.0000    0.88205   0.51376   0.50212   Biso      1.000     O          -0.597422           
         O32       1.0000    0.48624   0.11795   0.49788   Biso      1.000     O          -0.597422           
         Zn1       1.0000    0.51308   0.51308   0.45122   Biso      1.000     Zn          1.070384  
         Zn2       1.0000    0.93814   0.93814   0.45122   Biso      1.000     Zn          1.069782  
         Zn3       1.0000    0.51308   0.93814   0.45122   Biso      1.000     Zn          1.069532  
         Zn4       1.0000    0.93814   0.51308   0.45122   Biso      1.000     Zn          1.069533  
         Zn5       1.0000    0.06186   0.48692   0.54878   Biso      1.000     Zn          1.069533  
         Zn6       1.0000    0.48692   0.06186   0.54878   Biso      1.000     Zn          1.069532  
         Zn7       1.0000    0.06186   0.06186   0.54878   Biso      1.000     Zn          1.069781  
         Zn8       1.0000    0.48692   0.48692   0.54878   Biso      1.000     Zn          1.070383 