
##########################################################################
#               Crystallographic Information Format file
#               Produced by PyCifRW module
#
#  This is a CIF file.  CIF has been adopted by the International
#  Union of Crystallography as the standard for data archiving and
#  transmission.
#
#  For information on this file format, follow the CIF links at
#  http://www.iucr.org
##########################################################################

data_image0

_cell_length_a                          9.238
_cell_length_b                          9.743
_cell_length_c                          18.225
_cell_angle_alpha                       90
_cell_angle_beta                        90
_cell_angle_gamma                       104.94
_symmetry_space_group_name_H-M          'P 1'
_symmetry_int_tables_number             1
loop_
  _symmetry_equiv_pos_as_xyz
         'x, y, z' 
loop_
  _atom_site_label
  _atom_site_occupancy
  _atom_site_fract_x
  _atom_site_fract_y
  _atom_site_fract_z
  _atom_site_thermal_displace_type
  _atom_site_B_iso_or_equiv
  _atom_site_type_symbol
  _atom_site_charge
         C1        1.0000    0.69290   0.85680   0.30660   Biso      1.000     C          0.105225  
         C2        1.0000    0.16280   0.46850   0.08440   Biso      1.000     C          0.570376  
         C3        1.0000    0.54060   0.85820   0.40530   Biso      1.000     C          0.093145  
         C4        1.0000    0.42580   0.75430   0.37350   Biso      1.000     C          -0.189002           
         C5        1.0000    0.44710   0.69660   0.30630   Biso      1.000     C          0.126639  
         C6        1.0000    0.67200   0.91950   0.77270   Biso      1.000     C          0.065625  
         C7        1.0000    0.69530   0.92600   0.69700   Biso      1.000     C          -0.157185           
         C8        1.0000    0.81030   0.03030   0.66660   Biso      1.000     C          -0.008709999999999999         
         C9        1.0000    0.90000   0.13270   0.71050   Biso      1.000     C          -0.13105999999999998          
         C10       1.0000    0.87540   0.13270   0.78560   Biso      1.000     C          0.004784  
         C11       1.0000    0.76340   0.02480   0.81660   Biso      1.000     C          -0.153665           
         C12       1.0000    0.02810   0.25130   0.33420   Biso      1.000     C          0.5596760000000001  
         C13       1.0000    0.30710   0.64320   0.80660   Biso      1.000     C          0.105225  
         C14       1.0000    0.55290   0.80340   0.80630   Biso      1.000     C          0.126639  
         C15       1.0000    0.57420   0.74570   0.87350   Biso      1.000     C          -0.189001           
         C16       1.0000    0.45940   0.64180   0.90530   Biso      1.000     C          0.093145  
         C17       1.0000    0.83720   0.03150   0.58440   Biso      1.000     C          0.570376  
         C18       1.0000    0.97190   0.24870   0.83420   Biso      1.000     C          0.5596760000000001  
         C19       1.0000    0.32800   0.58050   0.27270   Biso      1.000     C          0.065625  
         C20       1.0000    0.30470   0.57400   0.19700   Biso      1.000     C          -0.157185           
         C21       1.0000    0.18970   0.46970   0.16660   Biso      1.000     C          -0.008709999999999999         
         C22       1.0000    0.10000   0.36730   0.21050   Biso      1.000     C          -0.13105999999999998          
         C23       1.0000    0.12460   0.36730   0.28560   Biso      1.000     C          0.004784  
         C24       1.0000    0.41500   0.74810   0.77180   Biso      1.000     C          -0.182327           
         C25       1.0000    0.32800   0.08050   0.22730   Biso      1.000     C          0.065625  
         C26       1.0000    0.30470   0.07400   0.30300   Biso      1.000     C          -0.157185           
         C27       1.0000    0.18970   0.96970   0.33340   Biso      1.000     C          -0.008709999999999999         
         C28       1.0000    0.97190   0.74870   0.66580   Biso      1.000     C          0.5596760000000001  
         C29       1.0000    0.83720   0.53150   0.91560   Biso      1.000     C          0.570376  
         C30       1.0000    0.45940   0.14180   0.59470   Biso      1.000     C          0.093145  
         C31       1.0000    0.57420   0.24570   0.62650   Biso      1.000     C          -0.189002           
         C32       1.0000    0.55290   0.30340   0.69370   Biso      1.000     C          0.126639  
         C33       1.0000    0.41500   0.24810   0.72820   Biso      1.000     C          -0.182328           
         C34       1.0000    0.30710   0.14320   0.69340   Biso      1.000     C          0.105226  
         C35       1.0000    0.76340   0.52480   0.68340   Biso      1.000     C          -0.153665           
         C36       1.0000    0.87540   0.63270   0.71440   Biso      1.000     C          0.004784  
         C37       1.0000    0.90000   0.63270   0.78950   Biso      1.000     C          -0.131064           
         C38       1.0000    0.81030   0.53030   0.83340   Biso      1.000     C          -0.008708           
         C39       1.0000    0.69530   0.42600   0.80300   Biso      1.000     C          -0.157184           
         C40       1.0000    0.67200   0.41950   0.72730   Biso      1.000     C          0.065625  
         C41       1.0000    0.02810   0.75130   0.16580   Biso      1.000     C          0.5596760000000001  
         C42       1.0000    0.16280   0.96850   0.41560   Biso      1.000     C          0.570376  
         C43       1.0000    0.54060   0.35820   0.09470   Biso      1.000     C          0.093145  
         C44       1.0000    0.42580   0.25430   0.12650   Biso      1.000     C          -0.189002           
         C45       1.0000    0.44710   0.19660   0.19370   Biso      1.000     C          0.126639  
         C46       1.0000    0.58500   0.25190   0.22820   Biso      1.000     C          -0.182328           
         C47       1.0000    0.69290   0.35680   0.19340   Biso      1.000     C          0.105226  
         C48       1.0000    0.23660   0.97520   0.18340   Biso      1.000     C          -0.153666           
         C49       1.0000    0.12460   0.86730   0.21440   Biso      1.000     C          0.004784  
         C50       1.0000    0.10000   0.86730   0.28950   Biso      1.000     C          -0.13105999999999998          
         C51       1.0000    0.23660   0.47520   0.31660   Biso      1.000     C          -0.153666           
         C52       1.0000    0.58500   0.75190   0.27180   Biso      1.000     C          -0.182327           
         Cd1       1.0000    0.13315   0.43812   0.93392   Biso      1.000     Cd          0.9120969999999999  
         Cd2       1.0000    0.86685   0.06188   0.43392   Biso      1.000     Cd          0.9120969999999999  
         Cd3       1.0000    0.86685   0.56188   0.06608   Biso      1.000     Cd          0.9120969999999999  
         Cd4       1.0000    0.13315   0.93812   0.56608   Biso      1.000     Cd          0.9120969999999999  
         H1        1.0000    0.47550   0.10600   0.54890   Biso      1.000     H          0.098031  
         H2        1.0000    0.63280   0.85950   0.66670   Biso      1.000     H          0.124601  
         H3        1.0000    0.97750   0.20220   0.68980   Biso      1.000     H          0.12575899999999998           
         H4        1.0000    0.21630   0.60700   0.78280   Biso      1.000     H          0.10095499999999999           
         H5        1.0000    0.39590   0.78150   0.72590   Biso      1.000     H          0.134819  
         H6        1.0000    0.66570   0.77650   0.89750   Biso      1.000     H          0.132744  
         H7        1.0000    0.47550   0.60600   0.95110   Biso      1.000     H          0.098031  
         H8        1.0000    0.36720   0.64050   0.16670   Biso      1.000     H          0.124601  
         H9        1.0000    0.02250   0.29780   0.18980   Biso      1.000     H          0.12575899999999998           
         H10       1.0000    0.25100   0.47740   0.36710   Biso      1.000     H          0.127939  
         H11       1.0000    0.78370   0.89300   0.28280   Biso      1.000     H          0.10095499999999999           
         H12       1.0000    0.60410   0.71850   0.22590   Biso      1.000     H          0.134819  
         H13       1.0000    0.74900   0.02260   0.86710   Biso      1.000     H          0.127939  
         H14       1.0000    0.52450   0.89400   0.45110   Biso      1.000     H          0.098031  
         H15       1.0000    0.36720   0.14050   0.33330   Biso      1.000     H          0.124601  
         H16       1.0000    0.02250   0.79780   0.31020   Biso      1.000     H          0.12575899999999998           
         H17       1.0000    0.25100   0.97740   0.13290   Biso      1.000     H          0.12794   
         H18       1.0000    0.78370   0.39300   0.21720   Biso      1.000     H          0.10095499999999999           
         H19       1.0000    0.60410   0.21850   0.27410   Biso      1.000     H          0.134819  
         H20       1.0000    0.33430   0.22350   0.10250   Biso      1.000     H          0.132744  
         H21       1.0000    0.52450   0.39400   0.04890   Biso      1.000     H          0.098031  
         H22       1.0000    0.63280   0.35950   0.83330   Biso      1.000     H          0.124601  
         H23       1.0000    0.97750   0.70220   0.81020   Biso      1.000     H          0.12575899999999998           
         H24       1.0000    0.74900   0.52260   0.63290   Biso      1.000     H          0.127939  
         H25       1.0000    0.21630   0.10700   0.71720   Biso      1.000     H          0.10095499999999999           
         H26       1.0000    0.39590   0.28150   0.77410   Biso      1.000     H          0.134819  
         H27       1.0000    0.66570   0.27650   0.60250   Biso      1.000     H          0.132744  
         H28       1.0000    0.33430   0.72350   0.39750   Biso      1.000     H          0.132744  
         N1        1.0000    0.32660   0.09120   0.62730   Biso      1.000     N          -0.236362           
         N2        1.0000    0.67340   0.40880   0.12730   Biso      1.000     N          -0.236362           
         N3        1.0000    0.32660   0.59120   0.87270   Biso      1.000     N          -0.236362           
         N4        1.0000    0.67340   0.90880   0.37270   Biso      1.000     N          -0.236362           
         O1        1.0000    0.73160   0.47600   0.95700   Biso      1.000     O          -0.532442           
         O2        1.0000    0.96810   0.59150   0.93854   Biso      1.000     O          -0.5712020000000001           
         O3        1.0000    0.06180   0.75110   0.09930   Biso      1.000     O          -0.546895           
         O4        1.0000    0.92270   0.66160   0.19420   Biso      1.000     O          -0.5735640000000001           
         O5        1.0000    0.26840   0.02400   0.45700   Biso      1.000     O          -0.532442           
         O6        1.0000    0.03190   0.90850   0.43854   Biso      1.000     O          -0.5712020000000001           
         O7        1.0000    0.06180   0.25110   0.40070   Biso      1.000     O          -0.546895           
         O8        1.0000    0.92270   0.16160   0.30580   Biso      1.000     O          -0.5735640000000001           
         O9        1.0000    0.03190   0.40850   0.06146   Biso      1.000     O          -0.5712020000000001           
         O10       1.0000    0.93820   0.24890   0.90070   Biso      1.000     O          -0.546895           
         O11       1.0000    0.07730   0.33840   0.80580   Biso      1.000     O          -0.5735640000000001           
         O12       1.0000    0.73160   0.97600   0.54300   Biso      1.000     O          -0.532442           
         O13       1.0000    0.96810   0.09150   0.56146   Biso      1.000     O          -0.5712020000000001           
         O14       1.0000    0.07730   0.83840   0.69420   Biso      1.000     O          -0.5735640000000001           
         O15       1.0000    0.26840   0.52400   0.04300   Biso      1.000     O          -0.532442           
         O16       1.0000    0.93820   0.74890   0.59930   Biso      1.000     O          -0.546895 