
##########################################################################
#               Crystallographic Information Format file
#               Produced by PyCifRW module
#
#  This is a CIF file.  CIF has been adopted by the International
#  Union of Crystallography as the standard for data archiving and
#  transmission.
#
#  For information on this file format, follow the CIF links at
#  http://www.iucr.org
##########################################################################

data_image0

_cell_length_a                          9.242
_cell_length_b                          9.727
_cell_length_c                          18.201
_cell_angle_alpha                       90
_cell_angle_beta                        90
_cell_angle_gamma                       105.11
_symmetry_space_group_name_H-M          'P 1'
_symmetry_int_tables_number             1
loop_
  _symmetry_equiv_pos_as_xyz
         'x, y, z' 
loop_
  _atom_site_label
  _atom_site_occupancy
  _atom_site_fract_x
  _atom_site_fract_y
  _atom_site_fract_z
  _atom_site_thermal_displace_type
  _atom_site_B_iso_or_equiv
  _atom_site_type_symbol
  _atom_site_charge
         C1        1.0000    0.80700   0.14340   0.69401   Biso      1.000     C          0.10706600000000001           
         C2        1.0000    0.66320   0.46820   0.08475   Biso      1.000     C          0.56786   
         C3        1.0000    0.59960   0.36580   0.21034   Biso      1.000     C          -0.128106           
         C4        1.0000    0.33680   0.03180   0.58475   Biso      1.000     C          0.56786   
         C5        1.0000    0.04020   0.85810   0.40536   Biso      1.000     C          0.089286  
         C6        1.0000    0.26320   0.02490   0.81671   Biso      1.000     C          -0.150589           
         C7        1.0000    0.80700   0.64340   0.80599   Biso      1.000     C          0.10706600000000001           
         C8        1.0000    0.40040   0.13420   0.71034   Biso      1.000     C          -0.128106           
         C9        1.0000    0.05300   0.80410   0.80603   Biso      1.000     C          0.126331  
         C10       1.0000    0.52880   0.25130   0.33366   Biso      1.000     C          0.558072  
         C11       1.0000    0.94700   0.69590   0.30603   Biso      1.000     C          0.126331  
         C12       1.0000    0.95980   0.64190   0.90536   Biso      1.000     C          0.089286  
         C13       1.0000    0.19410   0.92590   0.69674   Biso      1.000     C          -0.15381  
         C14       1.0000    0.47120   0.24870   0.83366   Biso      1.000     C          0.558072  
         C15       1.0000    0.62420   0.36620   0.28563   Biso      1.000     C          0.0033399999999999997         
         C16       1.0000    0.52880   0.75130   0.16634   Biso      1.000     C          0.558072  
         C17       1.0000    0.94700   0.19590   0.19397   Biso      1.000     C          0.126332  
         C18       1.0000    0.08490   0.25100   0.22847   Biso      1.000     C          -0.184328           
         C19       1.0000    0.66320   0.96820   0.41525   Biso      1.000     C          0.56786   
         C20       1.0000    0.92580   0.25340   0.12598   Biso      1.000     C          -0.18787  
         C21       1.0000    0.05300   0.30410   0.69397   Biso      1.000     C          0.126331  
         C22       1.0000    0.73680   0.97510   0.18329   Biso      1.000     C          -0.150589           
         C23       1.0000    0.95980   0.14190   0.59464   Biso      1.000     C          0.089286  
         C24       1.0000    0.33680   0.53180   0.91525   Biso      1.000     C          0.56786   
         C25       1.0000    0.73680   0.47510   0.31671   Biso      1.000     C          -0.150589           
         C26       1.0000    0.47120   0.74870   0.66634   Biso      1.000     C          0.558072  
         C27       1.0000    0.37580   0.13380   0.78563   Biso      1.000     C          0.0033399999999999997         
         C28       1.0000    0.07420   0.74660   0.87402   Biso      1.000     C          -0.187869           
         C29       1.0000    0.91510   0.24900   0.72847   Biso      1.000     C          -0.184324           
         C30       1.0000    0.17190   0.42000   0.72713   Biso      1.000     C          0.06614199999999999           
         C31       1.0000    0.19410   0.42590   0.80326   Biso      1.000     C          -0.15381  
         C32       1.0000    0.26320   0.52490   0.68329   Biso      1.000     C          -0.150589           
         C33       1.0000    0.19300   0.35660   0.19401   Biso      1.000     C          0.107071  
         C34       1.0000    0.04020   0.35810   0.09464   Biso      1.000     C          0.089287  
         C35       1.0000    0.68950   0.96920   0.33410   Biso      1.000     C          -0.011268           
         C36       1.0000    0.82810   0.08000   0.22713   Biso      1.000     C          0.06614199999999999           
         C37       1.0000    0.37580   0.63380   0.71437   Biso      1.000     C          0.0033399999999999997         
         C38       1.0000    0.62420   0.86620   0.21437   Biso      1.000     C          0.003339  
         C39       1.0000    0.80590   0.07410   0.30326   Biso      1.000     C          -0.15381  
         C40       1.0000    0.40040   0.63420   0.78966   Biso      1.000     C          -0.128106           
         C41       1.0000    0.07420   0.24660   0.62598   Biso      1.000     C          -0.187868           
         C42       1.0000    0.59960   0.86580   0.28966   Biso      1.000     C          -0.128105           
         C43       1.0000    0.31050   0.53080   0.83410   Biso      1.000     C          -0.011266           
         C44       1.0000    0.19300   0.85660   0.30599   Biso      1.000     C          0.10706600000000001           
         C45       1.0000    0.92580   0.75340   0.37402   Biso      1.000     C          -0.187868           
         C46       1.0000    0.82810   0.58000   0.27287   Biso      1.000     C          0.06614199999999999           
         C47       1.0000    0.17190   0.92000   0.77287   Biso      1.000     C          0.06614199999999999           
         C48       1.0000    0.80590   0.57410   0.19674   Biso      1.000     C          -0.15381  
         C49       1.0000    0.08490   0.75100   0.27153   Biso      1.000     C          -0.184324           
         C50       1.0000    0.91510   0.74900   0.77153   Biso      1.000     C          -0.184324           
         C51       1.0000    0.68950   0.46920   0.16590   Biso      1.000     C          -0.011266           
         C52       1.0000    0.31050   0.03080   0.66590   Biso      1.000     C          -0.011266           
         Cd1       1.0000    0.36637   0.56172   0.06627   Biso      1.000     Cd          0.912954  
         Cd2       1.0000    0.36637   0.06172   0.43373   Biso      1.000     Cd          0.912954  
         Cd3       1.0000    0.63363   0.43828   0.93373   Biso      1.000     Cd          0.912954  
         Cd4       1.0000    0.63363   0.93828   0.56627   Biso      1.000     Cd          0.912954  
         H1        1.0000    0.71650   0.60660   0.78180   Biso      1.000     H          0.10206   
         H2        1.0000    0.16520   0.77850   0.89840   Biso      1.000     H          0.133489  
         H3        1.0000    0.28350   0.89340   0.28180   Biso      1.000     H          0.10206   
         H4        1.0000    0.24900   0.02240   0.86730   Biso      1.000     H          0.12903599999999998           
         H5        1.0000    0.86920   0.64060   0.16660   Biso      1.000     H          0.124852  
         H6        1.0000    0.02390   0.89500   0.45090   Biso      1.000     H          0.099745  
         H7        1.0000    0.10390   0.71700   0.22570   Biso      1.000     H          0.135124  
         H8        1.0000    0.52230   0.29560   0.18960   Biso      1.000     H          0.126323  
         H9        1.0000    0.13080   0.85940   0.66660   Biso      1.000     H          0.124852  
         H10       1.0000    0.97610   0.60500   0.95090   Biso      1.000     H          0.099745  
         H11       1.0000    0.75100   0.47760   0.36730   Biso      1.000     H          0.12903599999999998           
         H12       1.0000    0.89610   0.78300   0.72570   Biso      1.000     H          0.135124  
         H13       1.0000    0.47770   0.20440   0.68960   Biso      1.000     H          0.126323  
         H14       1.0000    0.28350   0.39340   0.21820   Biso      1.000     H          0.10206   
         H15       1.0000    0.47770   0.70440   0.81040   Biso      1.000     H          0.126323  
         H16       1.0000    0.71650   0.10660   0.71820   Biso      1.000     H          0.102061  
         H17       1.0000    0.52230   0.79560   0.31040   Biso      1.000     H          0.126323  
         H18       1.0000    0.02390   0.39500   0.04910   Biso      1.000     H          0.099745  
         H19       1.0000    0.16520   0.27850   0.60160   Biso      1.000     H          0.133489  
         H20       1.0000    0.86920   0.14060   0.33340   Biso      1.000     H          0.124852  
         H21       1.0000    0.89610   0.28300   0.77430   Biso      1.000     H          0.135124  
         H22       1.0000    0.97610   0.10500   0.54910   Biso      1.000     H          0.099745  
         H23       1.0000    0.83480   0.72150   0.39840   Biso      1.000     H          0.133489  
         H24       1.0000    0.13080   0.35940   0.83340   Biso      1.000     H          0.124852  
         H25       1.0000    0.10390   0.21700   0.27430   Biso      1.000     H          0.135124  
         H26       1.0000    0.24900   0.52240   0.63270   Biso      1.000     H          0.12903599999999998           
         H27       1.0000    0.83480   0.22150   0.10160   Biso      1.000     H          0.133489  
         H28       1.0000    0.75100   0.97760   0.13270   Biso      1.000     H          0.12903599999999998           
         N1        1.0000    0.17390   0.90840   0.37245   Biso      1.000     N          -0.23653000000000002          
         N2        1.0000    0.82610   0.59160   0.87245   Biso      1.000     N          -0.23653000000000002          
         N3        1.0000    0.82610   0.09160   0.62755   Biso      1.000     N          -0.23653000000000002          
         N4        1.0000    0.17390   0.40840   0.12755   Biso      1.000     N          -0.23653000000000002          
         O1        1.0000    0.76880   0.02490   0.45706   Biso      1.000     O          -0.533225           
         O2        1.0000    0.46850   0.59210   0.93897   Biso      1.000     O          -0.57297  
         O3        1.0000    0.23120   0.47510   0.95706   Biso      1.000     O          -0.533225           
         O4        1.0000    0.42270   0.66110   0.19438   Biso      1.000     O          -0.5733090000000001           
         O5        1.0000    0.53150   0.90790   0.43897   Biso      1.000     O          -0.57297  
         O6        1.0000    0.56180   0.75100   0.09919   Biso      1.000     O          -0.549686           
         O7        1.0000    0.42270   0.16110   0.30562   Biso      1.000     O          -0.5733090000000001           
         O8        1.0000    0.56180   0.25100   0.40081   Biso      1.000     O          -0.549686           
         O9        1.0000    0.53150   0.40790   0.06103   Biso      1.000     O          -0.57297  
         O10       1.0000    0.46850   0.09210   0.56103   Biso      1.000     O          -0.57297  
         O11       1.0000    0.43820   0.24900   0.90081   Biso      1.000     O          -0.549686           
         O12       1.0000    0.76880   0.52490   0.04294   Biso      1.000     O          -0.533225           
         O13       1.0000    0.23120   0.97510   0.54294   Biso      1.000     O          -0.533225           
         O14       1.0000    0.57730   0.33890   0.80562   Biso      1.000     O          -0.5733090000000001           
         O15       1.0000    0.43820   0.74900   0.59919   Biso      1.000     O          -0.549686           
         O16       1.0000    0.57730   0.83890   0.69438   Biso      1.000     O          -0.5733090000000001 