
##########################################################################
#               Crystallographic Information Format file
#               Produced by PyCifRW module
#
#  This is a CIF file.  CIF has been adopted by the International
#  Union of Crystallography as the standard for data archiving and
#  transmission.
#
#  For information on this file format, follow the CIF links at
#  http://www.iucr.org
##########################################################################

data_image0

_cell_length_a                          13.916
_cell_length_b                          26.638
_cell_length_c                          7.631
_cell_angle_alpha                       90
_cell_angle_beta                        90
_cell_angle_gamma                       90
_symmetry_space_group_name_H-M          'P 1'
_symmetry_int_tables_number             1
loop_
  _symmetry_equiv_pos_as_xyz
         'x, y, z' 
loop_
  _atom_site_label
  _atom_site_occupancy
  _atom_site_fract_x
  _atom_site_fract_y
  _atom_site_fract_z
  _atom_site_thermal_displace_type
  _atom_site_B_iso_or_equiv
  _atom_site_type_symbol
  _atom_site_charge
         C1        1.0000    0.89240   0.53000   0.59800   Biso      1.000     C          0.063045  
         C2        1.0000    0.75350   0.70120   0.19600   Biso      1.000     C          0.08380800000000001           
         C3        1.0000    0.76150   0.70120   0.54200   Biso      1.000     C          0.079864  
         C4        1.0000    0.73850   0.20120   0.04200   Biso      1.000     C          0.079855  
         C5        1.0000    0.57640   0.55200   0.92000   Biso      1.000     C          0.07097300000000001           
         C6        1.0000    0.92300   0.56030   0.12600   Biso      1.000     C          0.112982  
         C7        1.0000    0.97700   0.59580   0.06100   Biso      1.000     C          0.041513  
         C8        1.0000    0.08630   0.59730   0.10400   Biso      1.000     C          0.141548  
         C9        1.0000    0.10760   0.47000   0.40200   Biso      1.000     C          0.063079  
         C10       1.0000    0.23850   0.29880   0.45800   Biso      1.000     C          0.079908  
         C11       1.0000    0.24650   0.29880   0.80400   Biso      1.000     C          0.083849  
         C12       1.0000    0.74650   0.29880   0.69600   Biso      1.000     C          0.083776  
         C13       1.0000    0.73850   0.29880   0.04200   Biso      1.000     C          0.079833  
         C14       1.0000    0.60760   0.47000   0.09800   Biso      1.000     C          0.06307   
         C15       1.0000    0.92360   0.44800   0.42000   Biso      1.000     C          0.070966  
         C16       1.0000    0.57700   0.43970   0.62600   Biso      1.000     C          0.113016  
         C17       1.0000    0.52300   0.40420   0.56100   Biso      1.000     C          0.04149   
         C18       1.0000    0.41370   0.40270   0.60400   Biso      1.000     C          0.14164100000000002           
         C19       1.0000    0.41370   0.09730   0.60400   Biso      1.000     C          0.141793  
         C20       1.0000    0.52300   0.09580   0.56100   Biso      1.000     C          0.04149   
         C21       1.0000    0.75350   0.79880   0.19600   Biso      1.000     C          0.0838    
         C22       1.0000    0.76150   0.79880   0.54200   Biso      1.000     C          0.079867  
         C23       1.0000    0.89240   0.97000   0.59800   Biso      1.000     C          0.063056  
         C24       1.0000    0.57640   0.94800   0.92000   Biso      1.000     C          0.070965  
         C25       1.0000    0.92300   0.93970   0.12600   Biso      1.000     C          0.11300299999999999           
         C26       1.0000    0.97700   0.90420   0.06100   Biso      1.000     C          0.041517  
         C27       1.0000    0.08630   0.90270   0.10400   Biso      1.000     C          0.141575  
         C28       1.0000    0.57700   0.06030   0.62600   Biso      1.000     C          0.113032  
         C29       1.0000    0.92360   0.05200   0.42000   Biso      1.000     C          0.070967  
         C30       1.0000    0.60760   0.03000   0.09800   Biso      1.000     C          0.063069  
         C31       1.0000    0.42360   0.44800   0.08000   Biso      1.000     C          0.070969  
         C32       1.0000    0.07700   0.43970   0.87400   Biso      1.000     C          0.113024  
         C33       1.0000    0.74650   0.20120   0.69600   Biso      1.000     C          0.083798  
         C34       1.0000    0.91370   0.40270   0.89600   Biso      1.000     C          0.14183800000000002           
         C35       1.0000    0.91370   0.09730   0.89600   Biso      1.000     C          0.14158199999999999           
         C36       1.0000    0.02300   0.40420   0.93900   Biso      1.000     C          0.041514999999999996          
         C37       1.0000    0.25350   0.70120   0.30400   Biso      1.000     C          0.08379199999999999           
         C38       1.0000    0.07700   0.06030   0.87400   Biso      1.000     C          0.11298599999999999           
         C39       1.0000    0.42360   0.05200   0.08000   Biso      1.000     C          0.07095499999999999           
         C40       1.0000    0.10760   0.03000   0.40200   Biso      1.000     C          0.063067  
         C41       1.0000    0.23850   0.20120   0.45800   Biso      1.000     C          0.07986   
         C42       1.0000    0.24650   0.20120   0.80400   Biso      1.000     C          0.0838    
         C43       1.0000    0.26150   0.70120   0.95800   Biso      1.000     C          0.079864  
         C44       1.0000    0.39240   0.53000   0.90200   Biso      1.000     C          0.063041  
         C45       1.0000    0.02300   0.09580   0.93900   Biso      1.000     C          0.041520999999999995          
         C46       1.0000    0.07640   0.55200   0.58000   Biso      1.000     C          0.070954  
         C47       1.0000    0.26150   0.79880   0.95800   Biso      1.000     C          0.07987799999999999           
         C48       1.0000    0.39240   0.97000   0.90200   Biso      1.000     C          0.063044  
         C49       1.0000    0.07640   0.94800   0.58000   Biso      1.000     C          0.07097   
         C50       1.0000    0.42300   0.93970   0.37400   Biso      1.000     C          0.11299200000000001           
         C51       1.0000    0.47700   0.90420   0.43900   Biso      1.000     C          0.041527  
         C52       1.0000    0.58630   0.90270   0.39600   Biso      1.000     C          0.141532  
         C53       1.0000    0.42300   0.56030   0.37400   Biso      1.000     C          0.112973  
         C54       1.0000    0.47700   0.59580   0.43900   Biso      1.000     C          0.041527999999999995          
         C55       1.0000    0.58630   0.59730   0.39600   Biso      1.000     C          0.141407  
         C56       1.0000    0.25350   0.79880   0.30400   Biso      1.000     C          0.083814  
         Cd1       1.0000    0.71815   0.11477   0.36634   Biso      1.000     Cd          0.976045  
         Cd2       1.0000    0.21815   0.38523   0.13366   Biso      1.000     Cd          0.9760559999999999  
         Cd3       1.0000    0.28185   0.88523   0.63366   Biso      1.000     Cd          0.976096  
         Cd4       1.0000    0.21815   0.11477   0.13366   Biso      1.000     Cd          0.9761    
         Cd5       1.0000    0.28185   0.61477   0.63366   Biso      1.000     Cd          0.9760780000000001  
         Cd6       1.0000    0.78185   0.88523   0.86634   Biso      1.000     Cd          0.9760969999999999  
         Cd7       1.0000    0.78185   0.61477   0.86634   Biso      1.000     Cd          0.976096  
         Cd8       1.0000    0.71815   0.38523   0.36634   Biso      1.000     Cd          0.976029  
         N1        1.0000    0.25260   0.67230   0.41200   Biso      1.000     N          -0.358705           
         N2        1.0000    0.26560   0.67040   0.85300   Biso      1.000     N          -0.352084           
         N3        1.0000    0.05250   0.37220   0.08100   Biso      1.000     N          -0.12845299999999998          
         N4        1.0000    0.24740   0.32770   0.91200   Biso      1.000     N          -0.358752           
         N5        1.0000    0.37450   0.41700   0.12900   Biso      1.000     N          -0.35430700000000004          
         N6        1.0000    0.32820   0.54890   0.83700   Biso      1.000     N          -0.355114           
         N7        1.0000    0.12550   0.58300   0.62900   Biso      1.000     N          -0.35418  
         N8        1.0000    0.32040   0.55810   0.40300   Biso      1.000     N          -0.193828           
         N9        1.0000    0.44750   0.62780   0.58100   Biso      1.000     N          -0.12903499999999998          
         N10       1.0000    0.17180   0.45110   0.33700   Biso      1.000     N          -0.355113           
         N11       1.0000    0.23440   0.32960   0.35300   Biso      1.000     N          -0.35211  
         N12       1.0000    0.17960   0.44190   0.90300   Biso      1.000     N          -0.193591           
         N13       1.0000    0.82820   0.95110   0.66300   Biso      1.000     N          -0.355108           
         N14       1.0000    0.67960   0.05810   0.59700   Biso      1.000     N          -0.193627           
         N15       1.0000    0.82820   0.54890   0.66300   Biso      1.000     N          -0.355068           
         N16       1.0000    0.55250   0.12780   0.41900   Biso      1.000     N          -0.12861  
         N17       1.0000    0.75260   0.67230   0.08800   Biso      1.000     N          -0.35873299999999997          
         N18       1.0000    0.44750   0.87220   0.58100   Biso      1.000     N          -0.128838           
         N19       1.0000    0.32040   0.94190   0.40300   Biso      1.000     N          -0.19375699999999998          
         N20       1.0000    0.12550   0.91700   0.62900   Biso      1.000     N          -0.354207           
         N21       1.0000    0.32820   0.95110   0.83700   Biso      1.000     N          -0.355093           
         N22       1.0000    0.26560   0.82960   0.85300   Biso      1.000     N          -0.352109           
         N23       1.0000    0.25260   0.82770   0.41200   Biso      1.000     N          -0.35872  
         N24       1.0000    0.05250   0.12780   0.08100   Biso      1.000     N          -0.128807           
         N25       1.0000    0.17960   0.05810   0.90300   Biso      1.000     N          -0.193744           
         N26       1.0000    0.37450   0.08300   0.12900   Biso      1.000     N          -0.354292           
         N27       1.0000    0.17180   0.04890   0.33700   Biso      1.000     N          -0.355148           
         N28       1.0000    0.23440   0.17040   0.35300   Biso      1.000     N          -0.352101           
         N29       1.0000    0.24740   0.17230   0.91200   Biso      1.000     N          -0.35874  
         N30       1.0000    0.62550   0.58300   0.87100   Biso      1.000     N          -0.354177           
         N31       1.0000    0.82040   0.55810   0.09700   Biso      1.000     N          -0.19375599999999998          
         N32       1.0000    0.76560   0.67040   0.64700   Biso      1.000     N          -0.352127           
         N33       1.0000    0.74740   0.32770   0.58800   Biso      1.000     N          -0.358742           
         N34       1.0000    0.87450   0.08300   0.37100   Biso      1.000     N          -0.354269           
         N35       1.0000    0.67180   0.04890   0.16300   Biso      1.000     N          -0.355119           
         N36       1.0000    0.73440   0.17040   0.14700   Biso      1.000     N          -0.352084           
         N37       1.0000    0.74740   0.17230   0.58800   Biso      1.000     N          -0.358725           
         N38       1.0000    0.94750   0.62780   0.91900   Biso      1.000     N          -0.12886199999999998          
         N39       1.0000    0.82040   0.94190   0.09700   Biso      1.000     N          -0.193793           
         N40       1.0000    0.62550   0.91700   0.87100   Biso      1.000     N          -0.354193           
         N41       1.0000    0.94750   0.87220   0.91900   Biso      1.000     N          -0.128816           
         N42       1.0000    0.76560   0.82960   0.64700   Biso      1.000     N          -0.352145           
         N43       1.0000    0.75260   0.82770   0.08800   Biso      1.000     N          -0.358749           
         N44       1.0000    0.55250   0.37220   0.41900   Biso      1.000     N          -0.128676           
         N45       1.0000    0.67960   0.44190   0.59700   Biso      1.000     N          -0.193747           
         N46       1.0000    0.87450   0.41700   0.37100   Biso      1.000     N          -0.35431  
         N47       1.0000    0.67180   0.45110   0.16300   Biso      1.000     N          -0.355151           
         N48       1.0000    0.73440   0.32960   0.14700   Biso      1.000     N          -0.352106           
         Ni1       1.0000    0.24360   0.25000   0.62910   Biso      1.000     Ni          0.18991   
         Ni2       1.0000    0.25640   0.75000   0.12910   Biso      1.000     Ni          0.19001300000000002           
         Ni3       1.0000    0.75640   0.75000   0.37090   Biso      1.000     Ni          0.19001600000000002           
         Ni4       1.0000    0.74360   0.25000   0.87090   Biso      1.000     Ni          0.18998800000000002           
         Ni5       1.0000    0.00000   0.00000   0.50000   Biso      1.000     Ni          0.155594  
         Ni6       1.0000    0.50000   0.00000   0.00000   Biso      1.000     Ni          0.155609  
         Ni7       1.0000    0.00000   0.50000   0.50000   Biso      1.000     Ni          0.15559800000000001           
         Ni8       1.0000    0.50000   0.50000   0.00000   Biso      1.000     Ni          0.155613 