
##########################################################################
#               Crystallographic Information Format file
#               Produced by PyCifRW module
#
#  This is a CIF file.  CIF has been adopted by the International
#  Union of Crystallography as the standard for data archiving and
#  transmission.
#
#  For information on this file format, follow the CIF links at
#  http://www.iucr.org
##########################################################################

data_image0

_cell_length_a                          7.319
_cell_length_b                          14.61
_cell_length_c                          20.564
_cell_angle_alpha                       90
_cell_angle_beta                        90
_cell_angle_gamma                       90
_symmetry_space_group_name_H-M          'P 1'
_symmetry_int_tables_number             1
loop_
  _symmetry_equiv_pos_as_xyz
         'x, y, z' 
loop_
  _atom_site_label
  _atom_site_occupancy
  _atom_site_fract_x
  _atom_site_fract_y
  _atom_site_fract_z
  _atom_site_thermal_displace_type
  _atom_site_B_iso_or_equiv
  _atom_site_type_symbol
  _atom_site_charge
         C1        1.0000    0.86130   0.74670   0.81140   Biso      1.000     C          -0.201675           
         C2        1.0000    0.24060   0.73170   0.98050   Biso      1.000     C          -0.5293770000000001           
         C3        1.0000    0.06630   0.74950   0.02100   Biso      1.000     C          0.6915319999999999  
         C4        1.0000    0.75990   0.62170   0.92190   Biso      1.000     C          -0.18551900000000002          
         C5        1.0000    0.74990   0.56020   0.97290   Biso      1.000     C          0.106076  
         C6        1.0000    0.83420   0.44170   0.90490   Biso      1.000     C          0.090515  
         C7        1.0000    0.84610   0.49960   0.85250   Biso      1.000     C          -0.19372799999999998          
         C8        1.0000    0.80600   0.59210   0.86020   Biso      1.000     C          0.111517  
         C9        1.0000    0.73370   0.69340   0.69450   Biso      1.000     C          0.107511  
         C10       1.0000    0.74480   0.63010   0.74310   Biso      1.000     C          -0.182977           
         C11       1.0000    0.80650   0.65610   0.80430   Biso      1.000     C          0.105222  
         C12       1.0000    0.84690   0.80480   0.75860   Biso      1.000     C          0.10201   
         C13       1.0000    0.07710   0.49850   0.64760   Biso      1.000     C          0.690009  
         C14       1.0000    0.41730   0.74660   0.01990   Biso      1.000     C          0.69998   
         C15       1.0000    0.24780   0.51650   0.68500   Biso      1.000     C          -0.524166           
         C16       1.0000    0.91730   0.75340   0.51990   Biso      1.000     C          0.69998   
         C17       1.0000    0.74060   0.76830   0.48050   Biso      1.000     C          -0.529378           
         C18       1.0000    0.56630   0.75050   0.52100   Biso      1.000     C          0.6915319999999999  
         C19       1.0000    0.24010   0.37830   0.42190   Biso      1.000     C          -0.18551900000000002          
         C20       1.0000    0.25010   0.43980   0.47290   Biso      1.000     C          0.106076  
         C21       1.0000    0.15390   0.50040   0.35250   Biso      1.000     C          -0.193733           
         C22       1.0000    0.19400   0.40790   0.36020   Biso      1.000     C          0.111517  
         C23       1.0000    0.26630   0.30660   0.19450   Biso      1.000     C          0.107511  
         C24       1.0000    0.25520   0.36990   0.24310   Biso      1.000     C          -0.182977           
         C25       1.0000    0.19350   0.34390   0.30430   Biso      1.000     C          0.105222  
         C26       1.0000    0.13870   0.25330   0.31140   Biso      1.000     C          -0.201675           
         C27       1.0000    0.15310   0.19520   0.25860   Biso      1.000     C          0.10201   
         C28       1.0000    0.41560   0.50220   0.64500   Biso      1.000     C          0.692634  
         C29       1.0000    0.92290   0.50150   0.14760   Biso      1.000     C          0.690009  
         C30       1.0000    0.91560   0.99780   0.14500   Biso      1.000     C          0.692634  
         C31       1.0000    0.57710   0.00150   0.14760   Biso      1.000     C          0.690009  
         C32       1.0000    0.74010   0.12170   0.92190   Biso      1.000     C          -0.18551900000000002          
         C33       1.0000    0.75010   0.06020   0.97290   Biso      1.000     C          0.106076  
         C34       1.0000    0.66580   0.94170   0.90490   Biso      1.000     C          0.090515  
         C35       1.0000    0.65390   0.99960   0.85250   Biso      1.000     C          -0.19372799999999998          
         C36       1.0000    0.69400   0.09210   0.86020   Biso      1.000     C          0.111517  
         C37       1.0000    0.76630   0.19340   0.69450   Biso      1.000     C          0.107511  
         C38       1.0000    0.75520   0.13010   0.74310   Biso      1.000     C          -0.182977           
         C39       1.0000    0.69350   0.15610   0.80430   Biso      1.000     C          0.105222  
         C40       1.0000    0.63870   0.24670   0.81140   Biso      1.000     C          -0.201675           
         C41       1.0000    0.65310   0.30480   0.75860   Biso      1.000     C          0.10201   
         C42       1.0000    0.42290   0.99850   0.64760   Biso      1.000     C          0.690009  
         C43       1.0000    0.25220   0.01650   0.68500   Biso      1.000     C          -0.524166           
         C44       1.0000    0.74780   0.98350   0.18500   Biso      1.000     C          -0.524166           
         C45       1.0000    0.08440   0.00220   0.64500   Biso      1.000     C          0.692634  
         C46       1.0000    0.75940   0.26830   0.48050   Biso      1.000     C          -0.529378           
         C47       1.0000    0.93370   0.25050   0.52100   Biso      1.000     C          0.6915319999999999  
         C48       1.0000    0.25990   0.87830   0.42190   Biso      1.000     C          -0.18551900000000002          
         C49       1.0000    0.24990   0.93980   0.47290   Biso      1.000     C          0.106076  
         C50       1.0000    0.33420   0.05830   0.40490   Biso      1.000     C          0.090515  
         C51       1.0000    0.34610   0.00040   0.35250   Biso      1.000     C          -0.19372799999999998          
         C52       1.0000    0.30600   0.90790   0.36020   Biso      1.000     C          0.111517  
         C53       1.0000    0.23370   0.80660   0.19450   Biso      1.000     C          0.107511  
         C54       1.0000    0.24480   0.86990   0.24310   Biso      1.000     C          -0.182977           
         C55       1.0000    0.30650   0.84390   0.30430   Biso      1.000     C          0.105222  
         C56       1.0000    0.36130   0.75330   0.31140   Biso      1.000     C          -0.201675           
         C57       1.0000    0.34690   0.69520   0.25860   Biso      1.000     C          0.10201   
         C58       1.0000    0.58270   0.25340   0.51990   Biso      1.000     C          0.69998   
         C59       1.0000    0.75220   0.48350   0.18500   Biso      1.000     C          -0.524166           
         C60       1.0000    0.16580   0.55830   0.40490   Biso      1.000     C          0.09052   
         C61       1.0000    0.08270   0.24660   0.01990   Biso      1.000     C          0.69998   
         C62       1.0000    0.25940   0.23170   0.98050   Biso      1.000     C          -0.529378           
         C63       1.0000    0.43370   0.24950   0.02100   Biso      1.000     C          0.691531  
         C64       1.0000    0.58440   0.49780   0.14500   Biso      1.000     C          0.692634  
         H1        1.0000    0.71840   0.58190   0.01390   Biso      1.000     H          0.10480999999999999           
         H2        1.0000    0.86180   0.38020   0.89860   Biso      1.000     H          0.09439600000000001           
         H3        1.0000    0.88090   0.47710   0.81210   Biso      1.000     H          0.132601  
         H4        1.0000    0.69030   0.67470   0.65410   Biso      1.000     H          0.099131  
         H5        1.0000    0.71120   0.56970   0.73530   Biso      1.000     H          0.130012  
         H6        1.0000    0.90680   0.76770   0.85090   Biso      1.000     H          0.133178  
         H7        1.0000    0.88570   0.86500   0.76370   Biso      1.000     H          0.08904   
         H8        1.0000    0.24590   0.57910   0.70080   Biso      1.000     H          0.179652  
         H9        1.0000    0.25170   0.47620   0.72250   Biso      1.000     H          0.170997  
         H10       1.0000    0.74100   0.72760   0.44320   Biso      1.000     H          0.165756  
         H11       1.0000    0.28160   0.41810   0.51390   Biso      1.000     H          0.10480999999999999           
         H12       1.0000    0.73550   0.68330   0.92920   Biso      1.000     H          0.129021  
         H13       1.0000    0.13820   0.61980   0.39860   Biso      1.000     H          0.094395  
         H14       1.0000    0.11910   0.52290   0.31210   Biso      1.000     H          0.132601  
         H15       1.0000    0.30970   0.32530   0.15410   Biso      1.000     H          0.099131  
         H16       1.0000    0.28880   0.43030   0.23530   Biso      1.000     H          0.130012  
         H17       1.0000    0.09320   0.23230   0.35090   Biso      1.000     H          0.133178  
         H18       1.0000    0.11430   0.13500   0.26370   Biso      1.000     H          0.08904   
         H19       1.0000    0.75410   0.42090   0.20080   Biso      1.000     H          0.179652  
         H20       1.0000    0.74830   0.52380   0.22250   Biso      1.000     H          0.170997  
         H21       1.0000    0.26180   0.16930   0.96440   Biso      1.000     H          0.171978  
         H22       1.0000    0.25900   0.27240   0.94320   Biso      1.000     H          0.165756  
         H23       1.0000    0.26450   0.31670   0.42920   Biso      1.000     H          0.129021  
         H24       1.0000    0.24100   0.77240   0.94320   Biso      1.000     H          0.165756  
         H25       1.0000    0.73820   0.83070   0.46440   Biso      1.000     H          0.171978  
         H26       1.0000    0.75170   0.02380   0.22250   Biso      1.000     H          0.170997  
         H27       1.0000    0.23820   0.66930   0.96440   Biso      1.000     H          0.171978  
         H28       1.0000    0.76450   0.18330   0.92920   Biso      1.000     H          0.129021  
         H29       1.0000    0.78160   0.08190   0.01390   Biso      1.000     H          0.10480999999999999           
         H30       1.0000    0.63820   0.88020   0.89860   Biso      1.000     H          0.09439600000000001           
         H31       1.0000    0.61910   0.97710   0.81210   Biso      1.000     H          0.132601  
         H32       1.0000    0.78880   0.06970   0.73530   Biso      1.000     H          0.130012  
         H33       1.0000    0.59320   0.26770   0.85090   Biso      1.000     H          0.133178  
         H34       1.0000    0.61430   0.36500   0.76370   Biso      1.000     H          0.08904   
         H35       1.0000    0.25410   0.07910   0.70080   Biso      1.000     H          0.179652  
         H36       1.0000    0.24830   0.97620   0.72250   Biso      1.000     H          0.170997  
         H37       1.0000    0.76180   0.33070   0.46440   Biso      1.000     H          0.171978  
         H38       1.0000    0.80970   0.17470   0.65410   Biso      1.000     H          0.099131  
         H39       1.0000    0.23550   0.81670   0.42920   Biso      1.000     H          0.12902   
         H40       1.0000    0.21840   0.91810   0.51390   Biso      1.000     H          0.10480999999999999           
         H41       1.0000    0.36180   0.11980   0.39860   Biso      1.000     H          0.09439600000000001           
         H42       1.0000    0.38090   0.02290   0.31210   Biso      1.000     H          0.132601  
         H43       1.0000    0.19030   0.82530   0.15410   Biso      1.000     H          0.099131  
         H44       1.0000    0.21120   0.93030   0.23530   Biso      1.000     H          0.130012  
         H45       1.0000    0.40680   0.73230   0.35090   Biso      1.000     H          0.133178  
         H46       1.0000    0.38570   0.63500   0.26370   Biso      1.000     H          0.08904   
         H47       1.0000    0.74590   0.92090   0.20080   Biso      1.000     H          0.179652  
         H48       1.0000    0.75900   0.22760   0.44320   Biso      1.000     H          0.165756  
         N1        1.0000    0.28430   0.03080   0.46560   Biso      1.000     N          -0.20875500000000002          
         N2        1.0000    0.28170   0.71990   0.20200   Biso      1.000     N          -0.19930499999999998          
         N3        1.0000    0.78430   0.46920   0.96560   Biso      1.000     N          -0.20875500000000002          
         N4        1.0000    0.78170   0.78010   0.70200   Biso      1.000     N          -0.19930499999999998          
         N5        1.0000    0.21570   0.53080   0.46560   Biso      1.000     N          -0.20875500000000002          
         N6        1.0000    0.21830   0.21990   0.20200   Biso      1.000     N          -0.19930499999999998          
         N7        1.0000    0.71570   0.96920   0.96560   Biso      1.000     N          -0.20875500000000002          
         N8        1.0000    0.71830   0.28010   0.70200   Biso      1.000     N          -0.19930499999999998          
         O1        1.0000    0.93500   0.95580   0.09120   Biso      1.000     O          -0.579155           
         O2        1.0000    0.44260   0.70110   0.07030   Biso      1.000     O          -0.585145           
         O3        1.0000    0.95350   0.80460   0.99880   Biso      1.000     O          -0.5562739999999999           
         O4        1.0000    0.05130   0.70820   0.07460   Biso      1.000     O          -0.593245           
         O5        1.0000    0.04490   0.54410   0.59670   Biso      1.000     O          -0.582845           
         O6        1.0000    0.53840   0.45000   0.66790   Biso      1.000     O          -0.56501  
         O7        1.0000    0.52470   0.80530   0.99890   Biso      1.000     O          -0.553312           
         O8        1.0000    0.96650   0.43900   0.67060   Biso      1.000     O          -0.5706859999999999           
         O9        1.0000    0.46650   0.06100   0.17060   Biso      1.000     O          -0.5706859999999999           
         O10       1.0000    0.96160   0.95000   0.66790   Biso      1.000     O          -0.56501  
         O11       1.0000    0.06500   0.04420   0.59120   Biso      1.000     O          -0.579155           
         O12       1.0000    0.47530   0.19470   0.49890   Biso      1.000     O          -0.553311           
         O13       1.0000    0.55740   0.29890   0.57030   Biso      1.000     O          -0.585144           
         O14       1.0000    0.04650   0.19540   0.49880   Biso      1.000     O          -0.5562739999999999           
         O15       1.0000    0.94870   0.29180   0.57460   Biso      1.000     O          -0.593245           
         O16       1.0000    0.43500   0.54420   0.59120   Biso      1.000     O          -0.579155           
         O17       1.0000    0.54490   0.95590   0.09670   Biso      1.000     O          -0.582845           
         O18       1.0000    0.03840   0.05000   0.16790   Biso      1.000     O          -0.56501  
         O19       1.0000    0.02470   0.69470   0.49890   Biso      1.000     O          -0.553311           
         O20       1.0000    0.53350   0.93900   0.67060   Biso      1.000     O          -0.5706859999999999           
         O21       1.0000    0.45350   0.69540   0.49880   Biso      1.000     O          -0.5562739999999999           
         O22       1.0000    0.45510   0.04410   0.59670   Biso      1.000     O          -0.582845           
         O23       1.0000    0.94260   0.79890   0.57030   Biso      1.000     O          -0.585144           
         O24       1.0000    0.54650   0.30460   0.99880   Biso      1.000     O          -0.5562739999999999           
         O25       1.0000    0.05740   0.20110   0.07030   Biso      1.000     O          -0.585144           
         O26       1.0000    0.97530   0.30530   0.99890   Biso      1.000     O          -0.553311           
         O27       1.0000    0.44870   0.20820   0.07460   Biso      1.000     O          -0.593245           
         O28       1.0000    0.46160   0.55000   0.16790   Biso      1.000     O          -0.56501  
         O29       1.0000    0.95510   0.45590   0.09670   Biso      1.000     O          -0.582845           
         O30       1.0000    0.03350   0.56100   0.17060   Biso      1.000     O          -0.570685           
         O31       1.0000    0.55130   0.79180   0.57460   Biso      1.000     O          -0.593245           
         O32       1.0000    0.56500   0.45580   0.09120   Biso      1.000     O          -0.579155           
         Zn1       1.0000    0.26260   0.12562   0.54537   Biso      1.000     Zn          0.9018290000000001  
         Zn2       1.0000    0.74990   0.37484   0.62156   Biso      1.000     Zn          0.911769  
         Zn3       1.0000    0.73740   0.87438   0.04537   Biso      1.000     Zn          0.9018290000000001  
         Zn4       1.0000    0.25010   0.62516   0.12156   Biso      1.000     Zn          0.911769  
         Zn5       1.0000    0.23740   0.62562   0.54537   Biso      1.000     Zn          0.9018280000000001  
         Zn6       1.0000    0.75010   0.87484   0.62156   Biso      1.000     Zn          0.911769  
         Zn7       1.0000    0.76260   0.37438   0.04537   Biso      1.000     Zn          0.9018280000000001  
         Zn8       1.0000    0.24990   0.12516   0.12156   Biso      1.000     Zn          0.911769 