
##########################################################################
#               Crystallographic Information Format file
#               Produced by PyCifRW module
#
#  This is a CIF file.  CIF has been adopted by the International
#  Union of Crystallography as the standard for data archiving and
#  transmission.
#
#  For information on this file format, follow the CIF links at
#  http://www.iucr.org
##########################################################################

data_image0

_cell_length_a                          9.1265
_cell_length_b                          9.1265
_cell_length_c                          14.4002
_cell_angle_alpha                       100.235
_cell_angle_beta                        100.235
_cell_angle_gamma                       116.058
_symmetry_space_group_name_H-M          'P 1'
_symmetry_int_tables_number             1
loop_
  _symmetry_equiv_pos_as_xyz
         'x, y, z' 
loop_
  _atom_site_label
  _atom_site_occupancy
  _atom_site_fract_x
  _atom_site_fract_y
  _atom_site_fract_z
  _atom_site_thermal_displace_type
  _atom_site_B_iso_or_equiv
  _atom_site_type_symbol
  _atom_site_charge
         C1        1.0000    0.10346   0.28266   0.56412   Biso      1.000     C          -0.172663           
         C2        1.0000    0.42490   0.07510   0.25000   Biso      1.000     C          0.5344479999999999  
         C3        1.0000    0.32510   0.17490   0.25000   Biso      1.000     C          0.530084  
         C4        1.0000    0.57510   0.92490   0.75000   Biso      1.000     C          0.5344479999999999  
         C5        1.0000    0.67490   0.82510   0.75000   Biso      1.000     C          0.530085  
         C6        1.0000    0.25604   0.43244   0.55808   Biso      1.000     C          0.698575  
         C7        1.0000    0.96066   0.28146   0.56412   Biso      1.000     C          -0.16984100000000002          
         C8        1.0000    0.80204   0.12564   0.55808   Biso      1.000     C          0.70081   
         C9        1.0000    0.21734   0.39654   0.93588   Biso      1.000     C          -0.172664           
         C10       1.0000    0.06756   0.24396   0.94192   Biso      1.000     C          0.698575  
         C11       1.0000    0.21854   0.53934   0.93588   Biso      1.000     C          -0.16984100000000002          
         C12       1.0000    0.89654   0.71734   0.43588   Biso      1.000     C          -0.172663           
         C13       1.0000    0.74396   0.56756   0.44192   Biso      1.000     C          0.698575  
         C14       1.0000    0.03934   0.71854   0.43588   Biso      1.000     C          -0.16984100000000002          
         C15       1.0000    0.19796   0.87436   0.44192   Biso      1.000     C          0.70081   
         C16       1.0000    0.37436   0.69796   0.94192   Biso      1.000     C          0.70081   
         C17       1.0000    0.93244   0.75604   0.05808   Biso      1.000     C          0.69857   
         C18       1.0000    0.78146   0.46066   0.06412   Biso      1.000     C          -0.169889           
         C19       1.0000    0.62564   0.30204   0.05808   Biso      1.000     C          0.700814  
         C20       1.0000    0.78266   0.60346   0.06412   Biso      1.000     C          -0.17261600000000002          
         H1        1.0000    0.68540   0.61100   0.06800   Biso      1.000     H          0.14002699999999998           
         H2        1.0000    0.04300   0.61740   0.43200   Biso      1.000     H          0.138281  
         H3        1.0000    0.88900   0.81460   0.43200   Biso      1.000     H          0.14003   
         H4        1.0000    0.88260   0.45700   0.06800   Biso      1.000     H          0.138284  
         H5        1.0000    0.31460   0.38900   0.93200   Biso      1.000     H          0.14003   
         H6        1.0000    0.95700   0.38260   0.56800   Biso      1.000     H          0.138281  
         H7        1.0000    0.11100   0.18540   0.56800   Biso      1.000     H          0.14003   
         H8        1.0000    0.11740   0.54300   0.93200   Biso      1.000     H          0.138281  
         O1        1.0000    0.50771   0.92987   0.66818   Biso      1.000     O          -0.6070260000000001           
         O2        1.0000    0.36917   0.83259   0.96656   Biso      1.000     O          -0.742325           
         O3        1.0000    0.50430   0.69660   0.92410   Biso      1.000     O          -0.629875           
         O4        1.0000    0.23831   0.16047   0.16818   Biso      1.000     O          -0.6056229999999999           
         O5        1.0000    0.09739   0.13397   0.96656   Biso      1.000     O          -0.7409279999999999           
         O6        1.0000    0.42987   0.00771   0.16818   Biso      1.000     O          -0.6070260000000001           
         O7        1.0000    0.36603   0.40261   0.53344   Biso      1.000     O          -0.7409279999999999           
         O8        1.0000    0.33953   0.26169   0.33182   Biso      1.000     O          -0.6056229999999999           
         O9        1.0000    0.80340   0.99570   0.57590   Biso      1.000     O          -0.6298739999999999           
         O10       1.0000    0.66741   0.13083   0.53344   Biso      1.000     O          -0.742325           
         O11       1.0000    0.72750   0.41980   0.42410   Biso      1.000     O          -0.629629           
         O12       1.0000    0.91980   0.22750   0.92410   Biso      1.000     O          -0.629628           
         O13       1.0000    0.63397   0.59739   0.46656   Biso      1.000     O          -0.7409279999999999           
         O14       1.0000    0.49229   0.07013   0.33182   Biso      1.000     O          -0.6070260000000001           
         O15       1.0000    0.19660   0.00430   0.42410   Biso      1.000     O          -0.6298739999999999           
         O16       1.0000    0.33259   0.86917   0.46656   Biso      1.000     O          -0.742325           
         O17       1.0000    0.57013   0.99229   0.83182   Biso      1.000     O          -0.6070260000000001           
         O18       1.0000    0.08020   0.77250   0.07590   Biso      1.000     O          -0.629628           
         O19       1.0000    0.90261   0.86603   0.03344   Biso      1.000     O          -0.740929           
         O20       1.0000    0.76169   0.83953   0.83182   Biso      1.000     O          -0.6056229999999999           
         O21       1.0000    0.49570   0.30340   0.07590   Biso      1.000     O          -0.629875           
         O22       1.0000    0.63083   0.16741   0.03344   Biso      1.000     O          -0.742325           
         O23       1.0000    0.27250   0.58020   0.57590   Biso      1.000     O          -0.629629           
         O24       1.0000    0.66047   0.73831   0.66818   Biso      1.000     O          -0.6056229999999999           
         Tb1       1.0000    0.49070   0.24070   0.48140   Biso      1.000     Tb          2.087947  
         Tb2       1.0000    0.25930   0.00930   0.01860   Biso      1.000     Tb          2.087948  
         Tb3       1.0000    0.50930   0.75930   0.51860   Biso      1.000     Tb          2.087947  
         Tb4       1.0000    0.74070   0.99070   0.98140   Biso      1.000     Tb          2.087948 