
##########################################################################
#               Crystallographic Information Format file
#               Produced by PyCifRW module
#
#  This is a CIF file.  CIF has been adopted by the International
#  Union of Crystallography as the standard for data archiving and
#  transmission.
#
#  For information on this file format, follow the CIF links at
#  http://www.iucr.org
##########################################################################

data_image0

_cell_length_a                          9.1176
_cell_length_b                          9.1176
_cell_length_c                          14.5424
_cell_angle_alpha                       79.7865
_cell_angle_beta                        79.7864
_cell_angle_gamma                       115.745
_symmetry_space_group_name_H-M          'P 1'
_symmetry_int_tables_number             1
loop_
  _symmetry_equiv_pos_as_xyz
         'x, y, z' 
loop_
  _atom_site_label
  _atom_site_occupancy
  _atom_site_fract_x
  _atom_site_fract_y
  _atom_site_fract_z
  _atom_site_thermal_displace_type
  _atom_site_B_iso_or_equiv
  _atom_site_type_symbol
  _atom_site_charge
         C1        1.0000    0.27760   0.46000   0.43660   Biso      1.000     C          -0.178123           
         C2        1.0000    0.71420   0.39660   0.56340   Biso      1.000     C          -0.176092           
         C3        1.0000    0.56437   0.24597   0.55846   Biso      1.000     C          0.6443770000000001  
         C4        1.0000    0.46000   0.27760   0.93660   Biso      1.000     C          -0.17813299999999999          
         C5        1.0000    0.30443   0.12283   0.94154   Biso      1.000     C          0.645237  
         C6        1.0000    0.60340   0.28580   0.93660   Biso      1.000     C          -0.176038           
         C7        1.0000    0.75403   0.43563   0.94154   Biso      1.000     C          0.644359  
         C8        1.0000    0.24597   0.56437   0.05846   Biso      1.000     C          0.644386  
         C9        1.0000    0.39660   0.71420   0.06340   Biso      1.000     C          -0.176093           
         C10       1.0000    0.69557   0.87717   0.05846   Biso      1.000     C          0.6452439999999999  
         C11       1.0000    0.54000   0.72240   0.06340   Biso      1.000     C          -0.178073           
         C12       1.0000    0.43563   0.75403   0.44154   Biso      1.000     C          0.644385  
         C13       1.0000    0.28580   0.60340   0.43660   Biso      1.000     C          -0.176044           
         C14       1.0000    0.12283   0.30443   0.44154   Biso      1.000     C          0.645242  
         C15       1.0000    0.92460   0.07540   0.25000   Biso      1.000     C          0.507883  
         C16       1.0000    0.82540   0.17460   0.25000   Biso      1.000     C          0.5089020000000001  
         C17       1.0000    0.07540   0.92460   0.75000   Biso      1.000     C          0.507891  
         C18       1.0000    0.17460   0.82540   0.75000   Biso      1.000     C          0.508908  
         C19       1.0000    0.87717   0.69557   0.55846   Biso      1.000     C          0.645239  
         C20       1.0000    0.72240   0.54000   0.56340   Biso      1.000     C          -0.178076           
         Eu1       1.0000    0.99051   0.24051   0.01898   Biso      1.000     Eu          1.371805  
         Eu2       1.0000    0.75949   0.00949   0.48102   Biso      1.000     Eu          1.3718110000000001  
         Eu3       1.0000    0.00949   0.75949   0.98102   Biso      1.000     Eu          1.371804  
         Eu4       1.0000    0.24051   0.99051   0.51898   Biso      1.000     Eu          1.3718110000000001  
         H1        1.0000    0.37680   0.45240   0.43340   Biso      1.000     H          0.134502  
         H2        1.0000    0.61420   0.18980   0.93340   Biso      1.000     H          0.133194  
         H3        1.0000    0.18980   0.61420   0.43340   Biso      1.000     H          0.133194  
         H4        1.0000    0.81020   0.38580   0.56660   Biso      1.000     H          0.133196  
         H5        1.0000    0.62320   0.54760   0.56660   Biso      1.000     H          0.134498  
         H6        1.0000    0.38580   0.81020   0.06660   Biso      1.000     H          0.133196  
         H7        1.0000    0.54760   0.62320   0.06660   Biso      1.000     H          0.134497  
         H8        1.0000    0.45240   0.37680   0.93340   Biso      1.000     H          0.134502  
         O1        1.0000    0.12415   0.16695   0.46710   Biso      1.000     O          -0.577513           
         O2        1.0000    0.13405   0.59125   0.03290   Biso      1.000     O          -0.578218           
         O3        1.0000    0.06880   0.99120   0.66920   Biso      1.000     O          -0.438496           
         O4        1.0000    0.58167   0.76767   0.42426   Biso      1.000     O          -0.524788           
         O5        1.0000    0.40875   0.86595   0.46710   Biso      1.000     O          -0.578216           
         O6        1.0000    0.16040   0.73800   0.83080   Biso      1.000     O          -0.43881400000000004          
         O7        1.0000    0.69193   0.00593   0.07574   Biso      1.000     O          -0.525522           
         O8        1.0000    0.83305   0.87585   0.03290   Biso      1.000     O          -0.577529           
         O9        1.0000    0.00880   0.93120   0.83080   Biso      1.000     O          -0.43851599999999996          
         O10       1.0000    0.23233   0.41833   0.07574   Biso      1.000     O          -0.524786           
         O11       1.0000    0.73800   0.16040   0.33080   Biso      1.000     O          -0.43882299999999996          
         O12       1.0000    0.59125   0.13405   0.53290   Biso      1.000     O          -0.578227           
         O13       1.0000    0.87585   0.83305   0.53290   Biso      1.000     O          -0.577526           
         O14       1.0000    0.93120   0.00880   0.33080   Biso      1.000     O          -0.43849899999999997          
         O15       1.0000    0.41833   0.23233   0.57574   Biso      1.000     O          -0.524782           
         O16       1.0000    0.83960   0.26200   0.16920   Biso      1.000     O          -0.438813           
         O17       1.0000    0.30807   0.99407   0.92426   Biso      1.000     O          -0.525496           
         O18       1.0000    0.16695   0.12415   0.96710   Biso      1.000     O          -0.577512           
         O19       1.0000    0.99120   0.06880   0.16920   Biso      1.000     O          -0.43850200000000006          
         O20       1.0000    0.76767   0.58167   0.92426   Biso      1.000     O          -0.524762           
         O21       1.0000    0.86595   0.40875   0.96710   Biso      1.000     O          -0.5782069999999999           
         O22       1.0000    0.99407   0.30807   0.42426   Biso      1.000     O          -0.525507           
         O23       1.0000    0.00593   0.69193   0.57574   Biso      1.000     O          -0.525504           
         O24       1.0000    0.26200   0.83960   0.66920   Biso      1.000     O          -0.438834 