
##########################################################################
#               Crystallographic Information Format file
#               Produced by PyCifRW module
#
#  This is a CIF file.  CIF has been adopted by the International
#  Union of Crystallography as the standard for data archiving and
#  transmission.
#
#  For information on this file format, follow the CIF links at
#  http://www.iucr.org
##########################################################################

data_image0

_cell_length_a                          12.1948
_cell_length_b                          13.7835
_cell_length_c                          18.384
_cell_angle_alpha                       90
_cell_angle_beta                        90
_cell_angle_gamma                       113.96
_symmetry_space_group_name_H-M          'P 1'
_symmetry_int_tables_number             1
loop_
  _symmetry_equiv_pos_as_xyz
         'x, y, z' 
loop_
  _atom_site_label
  _atom_site_occupancy
  _atom_site_fract_x
  _atom_site_fract_y
  _atom_site_fract_z
  _atom_site_thermal_displace_type
  _atom_site_B_iso_or_equiv
  _atom_site_type_symbol
  _atom_site_charge
         C1        1.0000    0.61070   0.40288   0.19241   Biso      1.000     C          -0.15177000000000002          
         C2        1.0000    0.17301   0.18146   0.39851   Biso      1.000     C          0.665392  
         C3        1.0000    0.68212   0.72107   0.94802   Biso      1.000     C          -0.10155499999999999          
         C4        1.0000    0.62751   0.61090   0.95217   Biso      1.000     C          -0.14507  
         C5        1.0000    0.52752   0.55895   0.99652   Biso      1.000     C          0.078565  
         C6        1.0000    0.48049   0.62203   0.03384   Biso      1.000     C          -0.140935           
         C7        1.0000    0.53332   0.73221   0.02872   Biso      1.000     C          -0.08165800000000001          
         C8        1.0000    0.63513   0.78236   0.98666   Biso      1.000     C          -0.027497000000000004         
         C9        1.0000    0.69665   0.90051   0.98659   Biso      1.000     C          0.617698  
         C10       1.0000    0.79804   0.83335   0.40495   Biso      1.000     C          0.652172  
         C11       1.0000    0.63758   0.56574   0.31177   Biso      1.000     C          -0.159181           
         C12       1.0000    0.65888   0.65820   0.35101   Biso      1.000     C          -0.100021           
         C13       1.0000    0.77437   0.73787   0.35648   Biso      1.000     C          -0.037001           
         C14       1.0000    0.86765   0.72466   0.32035   Biso      1.000     C          -0.097997           
         C15       1.0000    0.84708   0.63186   0.28171   Biso      1.000     C          -0.15524300000000002          
         C16       1.0000    0.73149   0.55003   0.27771   Biso      1.000     C          0.07041900000000001           
         C17       1.0000    0.59634   0.31396   0.15052   Biso      1.000     C          -0.096612           
         C18       1.0000    0.36487   0.21764   0.01334   Biso      1.000     C          -0.027499000000000003         
         C19       1.0000    0.71105   0.45070   0.23714   Biso      1.000     C          0.076106  
         C20       1.0000    0.79503   0.40563   0.24005   Biso      1.000     C          -0.163911           
         C21       1.0000    0.78203   0.31847   0.19681   Biso      1.000     C          -0.10192899999999999          
         C22       1.0000    0.68299   0.27246   0.15119   Biso      1.000     C          -0.03433  
         C23       1.0000    0.67301   0.18146   0.10149   Biso      1.000     C          0.665392  
         C24       1.0000    0.81788   0.27893   0.44802   Biso      1.000     C          -0.10155499999999999          
         C25       1.0000    0.87249   0.38910   0.45217   Biso      1.000     C          -0.14507  
         C26       1.0000    0.97248   0.44105   0.49652   Biso      1.000     C          0.078565  
         C27       1.0000    0.01951   0.37797   0.53384   Biso      1.000     C          -0.140935           
         C28       1.0000    0.96668   0.26779   0.52872   Biso      1.000     C          -0.08165800000000001          
         C29       1.0000    0.86487   0.21764   0.48666   Biso      1.000     C          -0.027497000000000004         
         C30       1.0000    0.80335   0.09949   0.48659   Biso      1.000     C          0.617698  
         C31       1.0000    0.18299   0.27246   0.34881   Biso      1.000     C          -0.03433  
         C32       1.0000    0.70196   0.16665   0.90495   Biso      1.000     C          0.652172  
         C33       1.0000    0.28203   0.31847   0.30319   Biso      1.000     C          -0.10192899999999999          
         C34       1.0000    0.21105   0.45070   0.26286   Biso      1.000     C          0.076106  
         C35       1.0000    0.36242   0.43426   0.68823   Biso      1.000     C          -0.159181           
         C36       1.0000    0.34112   0.34180   0.64899   Biso      1.000     C          -0.100021           
         C37       1.0000    0.22563   0.26213   0.64352   Biso      1.000     C          -0.037001           
         C38       1.0000    0.13235   0.27534   0.67965   Biso      1.000     C          -0.097997           
         C39       1.0000    0.15292   0.36814   0.71829   Biso      1.000     C          -0.15524300000000002          
         C40       1.0000    0.26851   0.44997   0.72229   Biso      1.000     C          0.07041900000000001           
         C41       1.0000    0.40366   0.68604   0.84948   Biso      1.000     C          -0.096612           
         C42       1.0000    0.38930   0.59712   0.80759   Biso      1.000     C          -0.15177000000000002          
         C43       1.0000    0.28895   0.54930   0.76286   Biso      1.000     C          0.076106  
         C44       1.0000    0.20497   0.59437   0.75995   Biso      1.000     C          -0.163911           
         C45       1.0000    0.21797   0.68153   0.80319   Biso      1.000     C          -0.10192899999999999          
         C46       1.0000    0.31701   0.72754   0.84881   Biso      1.000     C          -0.03433  
         C47       1.0000    0.32699   0.81854   0.89851   Biso      1.000     C          0.665392  
         C48       1.0000    0.18212   0.72107   0.55198   Biso      1.000     C          -0.10155499999999999          
         C49       1.0000    0.12751   0.61090   0.54783   Biso      1.000     C          -0.14507  
         C50       1.0000    0.02752   0.55895   0.50348   Biso      1.000     C          0.078565  
         C51       1.0000    0.98049   0.62203   0.46616   Biso      1.000     C          -0.140935           
         C52       1.0000    0.03332   0.73221   0.47128   Biso      1.000     C          -0.08165800000000001          
         C53       1.0000    0.13513   0.78236   0.51334   Biso      1.000     C          -0.027497000000000004         
         C54       1.0000    0.19665   0.90051   0.51341   Biso      1.000     C          0.617698  
         C55       1.0000    0.29804   0.83335   0.09505   Biso      1.000     C          0.652172  
         C56       1.0000    0.13758   0.56574   0.18823   Biso      1.000     C          -0.159181           
         C57       1.0000    0.15888   0.65820   0.14899   Biso      1.000     C          -0.100021           
         C58       1.0000    0.27437   0.73787   0.14352   Biso      1.000     C          -0.037001           
         C59       1.0000    0.36765   0.72466   0.17965   Biso      1.000     C          -0.097997           
         C60       1.0000    0.34708   0.63186   0.21829   Biso      1.000     C          -0.15524300000000002          
         C61       1.0000    0.23149   0.55003   0.22229   Biso      1.000     C          0.07041900000000001           
         C62       1.0000    0.09634   0.31396   0.34948   Biso      1.000     C          -0.096612           
         C63       1.0000    0.11070   0.40288   0.30759   Biso      1.000     C          -0.15177000000000002          
         C64       1.0000    0.29503   0.40563   0.25995   Biso      1.000     C          -0.163912           
         C65       1.0000    0.86242   0.43426   0.81177   Biso      1.000     C          -0.159181           
         C66       1.0000    0.84112   0.34180   0.85101   Biso      1.000     C          -0.100021           
         C67       1.0000    0.72563   0.26213   0.85648   Biso      1.000     C          -0.037001           
         C68       1.0000    0.31788   0.27893   0.05198   Biso      1.000     C          -0.10155499999999999          
         C69       1.0000    0.37249   0.38910   0.04783   Biso      1.000     C          -0.14507  
         C70       1.0000    0.47248   0.44105   0.00348   Biso      1.000     C          0.078565  
         C71       1.0000    0.51951   0.37797   0.96616   Biso      1.000     C          -0.140935           
         C72       1.0000    0.46668   0.26779   0.97128   Biso      1.000     C          -0.08165599999999999          
         C73       1.0000    0.20196   0.16665   0.59505   Biso      1.000     C          0.652172  
         C74       1.0000    0.82699   0.81854   0.60149   Biso      1.000     C          0.665392  
         C75       1.0000    0.81701   0.72754   0.65119   Biso      1.000     C          -0.03433  
         C76       1.0000    0.30335   0.09949   0.01341   Biso      1.000     C          0.617698  
         C77       1.0000    0.70497   0.59437   0.74005   Biso      1.000     C          -0.163911           
         C78       1.0000    0.78895   0.54930   0.73714   Biso      1.000     C          0.07610499999999999           
         C79       1.0000    0.88930   0.59712   0.69241   Biso      1.000     C          -0.15177000000000002          
         C80       1.0000    0.90366   0.68604   0.65052   Biso      1.000     C          -0.096612           
         C81       1.0000    0.71797   0.68153   0.69681   Biso      1.000     C          -0.10192999999999999          
         C82       1.0000    0.65292   0.36814   0.78171   Biso      1.000     C          -0.15524300000000002          
         C83       1.0000    0.63235   0.27534   0.82035   Biso      1.000     C          -0.097997           
         C84       1.0000    0.76851   0.44997   0.77771   Biso      1.000     C          0.07041900000000001           
         H1        1.0000    0.59400   0.66700   0.37430   Biso      1.000     H          0.11633199999999999           
         H2        1.0000    0.94620   0.77950   0.32200   Biso      1.000     H          0.121129  
         H3        1.0000    0.91200   0.62390   0.25780   Biso      1.000     H          0.11341400000000001           
         H4        1.0000    0.52670   0.28150   0.12130   Biso      1.000     H          0.105253  
         H5        1.0000    0.55150   0.43120   0.19050   Biso      1.000     H          0.109078  
         H6        1.0000    0.86190   0.43480   0.27190   Biso      1.000     H          0.104699  
         H7        1.0000    0.84120   0.29020   0.19850   Biso      1.000     H          0.11233800000000001           
         H8        1.0000    0.74840   0.24540   0.41880   Biso      1.000     H          0.116649  
         H9        1.0000    0.84120   0.43000   0.42420   Biso      1.000     H          0.11249   
         H10       1.0000    0.00060   0.22670   0.55420   Biso      1.000     H          0.116849  
         H11       1.0000    0.55810   0.51270   0.30810   Biso      1.000     H          0.109822  
         H12       1.0000    0.90600   0.33300   0.87430   Biso      1.000     H          0.11633199999999999           
         H13       1.0000    0.55380   0.22050   0.82200   Biso      1.000     H          0.121129  
         H14       1.0000    0.58800   0.37610   0.75780   Biso      1.000     H          0.11341400000000001           
         H15       1.0000    0.97330   0.71850   0.62130   Biso      1.000     H          0.105253  
         H16       1.0000    0.94850   0.56880   0.69050   Biso      1.000     H          0.109078  
         H17       1.0000    0.63810   0.56520   0.77190   Biso      1.000     H          0.104699  
         H18       1.0000    0.65880   0.70980   0.69850   Biso      1.000     H          0.11233800000000001           
         H19       1.0000    0.08890   0.41110   0.56320   Biso      1.000     H          0.110167  
         H20       1.0000    0.94190   0.48730   0.80810   Biso      1.000     H          0.109822  
         H21       1.0000    0.41110   0.58890   0.06320   Biso      1.000     H          0.110167  
         H22       1.0000    0.65880   0.57000   0.92420   Biso      1.000     H          0.11249   
         H23       1.0000    0.24840   0.24540   0.08120   Biso      1.000     H          0.116649  
         H24       1.0000    0.34120   0.43000   0.07580   Biso      1.000     H          0.11249   
         H25       1.0000    0.58890   0.41110   0.93680   Biso      1.000     H          0.110167  
         H26       1.0000    0.50060   0.22670   0.94580   Biso      1.000     H          0.116849  
         H27       1.0000    0.44190   0.48730   0.69190   Biso      1.000     H          0.109823  
         H28       1.0000    0.40600   0.33300   0.62570   Biso      1.000     H          0.11633199999999999           
         H29       1.0000    0.05380   0.22050   0.67800   Biso      1.000     H          0.121129  
         H30       1.0000    0.08800   0.37610   0.74220   Biso      1.000     H          0.11341400000000001           
         H31       1.0000    0.47330   0.71850   0.87870   Biso      1.000     H          0.105253  
         H32       1.0000    0.44850   0.56880   0.80950   Biso      1.000     H          0.109079  
         H33       1.0000    0.13810   0.56520   0.72810   Biso      1.000     H          0.104699  
         H34       1.0000    0.49940   0.77330   0.05420   Biso      1.000     H          0.116849  
         H35       1.0000    0.15880   0.70980   0.80150   Biso      1.000     H          0.11233800000000001           
         H36       1.0000    0.15880   0.57000   0.57580   Biso      1.000     H          0.11249   
         H37       1.0000    0.91110   0.58890   0.43680   Biso      1.000     H          0.110167  
         H38       1.0000    0.99940   0.77330   0.44580   Biso      1.000     H          0.116849  
         H39       1.0000    0.05810   0.51270   0.19190   Biso      1.000     H          0.109823  
         H40       1.0000    0.09400   0.66700   0.12570   Biso      1.000     H          0.11633199999999999           
         H41       1.0000    0.44620   0.77950   0.17800   Biso      1.000     H          0.121129  
         H42       1.0000    0.41200   0.62390   0.24220   Biso      1.000     H          0.11341400000000001           
         H43       1.0000    0.02670   0.28150   0.37870   Biso      1.000     H          0.105253  
         H44       1.0000    0.36190   0.43480   0.22810   Biso      1.000     H          0.104699  
         H45       1.0000    0.34120   0.29020   0.30150   Biso      1.000     H          0.11233800000000001           
         H46       1.0000    0.75160   0.75460   0.91880   Biso      1.000     H          0.116649  
         H47       1.0000    0.25160   0.75460   0.58120   Biso      1.000     H          0.116649  
         H48       1.0000    0.05150   0.43120   0.30950   Biso      1.000     H          0.109079  
         Mg1       1.0000    0.68007   0.91583   0.52072   Biso      1.000     Mg          1.467967  
         Mg2       1.0000    0.50000   0.00000   0.00000   Biso      1.000     Mg          1.423454  
         Mg3       1.0000    0.00000   0.00000   0.50000   Biso      1.000     Mg          1.423454  
         Mg4       1.0000    0.18007   0.91583   0.97928   Biso      1.000     Mg          1.467967  
         Mg5       1.0000    0.31993   0.08417   0.47928   Biso      1.000     Mg          1.467967  
         Mg6       1.0000    0.81993   0.08417   0.02072   Biso      1.000     Mg          1.467967  
         O1        1.0000    0.29311   0.15751   0.57000   Biso      1.000     O          -0.714982           
         O2        1.0000    0.09418   0.10621   0.58269   Biso      1.000     O          -0.6405310000000001           
         O3        1.0000    0.22960   0.82622   0.91155   Biso      1.000     O          -0.732417           
         O4        1.0000    0.42845   0.87694   0.92316   Biso      1.000     O          -0.6258199999999999           
         O5        1.0000    0.14371   0.95500   0.48553   Biso      1.000     O          -0.725222           
         O6        1.0000    0.30246   0.94425   0.53586   Biso      1.000     O          -0.654584           
         O7        1.0000    0.20689   0.84249   0.07000   Biso      1.000     O          -0.714982           
         O8        1.0000    0.40582   0.89379   0.08269   Biso      1.000     O          -0.64053  
         O9        1.0000    0.27040   0.17378   0.41155   Biso      1.000     O          -0.732417           
         O10       1.0000    0.07155   0.12306   0.42316   Biso      1.000     O          -0.6258199999999999           
         O11       1.0000    0.64371   0.95500   0.01447   Biso      1.000     O          -0.725222           
         O12       1.0000    0.70689   0.84249   0.43000   Biso      1.000     O          -0.7149810000000001           
         O13       1.0000    0.19754   0.05575   0.03586   Biso      1.000     O          -0.654584           
         O14       1.0000    0.90582   0.89379   0.41731   Biso      1.000     O          -0.64053  
         O15       1.0000    0.77040   0.17378   0.08845   Biso      1.000     O          -0.732417           
         O16       1.0000    0.57155   0.12306   0.07684   Biso      1.000     O          -0.6258199999999999           
         O17       1.0000    0.85629   0.04500   0.51447   Biso      1.000     O          -0.725222           
         O18       1.0000    0.69754   0.05575   0.46414   Biso      1.000     O          -0.654584           
         O19       1.0000    0.79311   0.15751   0.93000   Biso      1.000     O          -0.7149810000000001           
         O20       1.0000    0.59418   0.10621   0.91731   Biso      1.000     O          -0.64053  
         O21       1.0000    0.72960   0.82622   0.58845   Biso      1.000     O          -0.732417           
         O22       1.0000    0.92845   0.87694   0.57684   Biso      1.000     O          -0.6258199999999999           
         O23       1.0000    0.80246   0.94425   0.96414   Biso      1.000     O          -0.654584           
         O24       1.0000    0.35629   0.04500   0.98553   Biso      1.000     O          -0.725222 