
##########################################################################
#               Crystallographic Information Format file
#               Produced by PyCifRW module
#
#  This is a CIF file.  CIF has been adopted by the International
#  Union of Crystallography as the standard for data archiving and
#  transmission.
#
#  For information on this file format, follow the CIF links at
#  http://www.iucr.org
##########################################################################

data_image0

_cell_length_a                          8.9778
_cell_length_b                          9.873
_cell_length_c                          17.253
_cell_angle_alpha                       90
_cell_angle_beta                        90
_cell_angle_gamma                       92.618
_symmetry_space_group_name_H-M          'P 1'
_symmetry_int_tables_number             1
loop_
  _symmetry_equiv_pos_as_xyz
         'x, y, z' 
loop_
  _atom_site_label
  _atom_site_occupancy
  _atom_site_fract_x
  _atom_site_fract_y
  _atom_site_fract_z
  _atom_site_thermal_displace_type
  _atom_site_B_iso_or_equiv
  _atom_site_type_symbol
  _atom_site_charge
         C1        1.0000    0.69172   0.27658   0.47772   Biso      1.000     C          0.605283  
         C2        1.0000    0.59050   0.39146   0.48871   Biso      1.000     C          -0.015676           
         C3        1.0000    0.17490   0.12630   0.76285   Biso      1.000     C          -0.111339           
         C4        1.0000    0.71672   0.63199   0.07514   Biso      1.000     C          0.66716   
         C5        1.0000    0.82510   0.87370   0.23715   Biso      1.000     C          -0.111339           
         C6        1.0000    0.82910   0.79770   0.16953   Biso      1.000     C          -0.090598           
         C7        1.0000    0.70448   0.71910   0.14593   Biso      1.000     C          -0.048151           
         C8        1.0000    0.61400   0.50959   0.44531   Biso      1.000     C          -0.10022  
         C9        1.0000    0.57589   0.71749   0.19039   Biso      1.000     C          -0.09807  
         C10       1.0000    0.69650   0.87119   0.28242   Biso      1.000     C          -0.016721           
         C11       1.0000    0.69320   0.94695   0.35804   Biso      1.000     C          0.635914  
         C12       1.0000    0.02290   0.11760   0.04341   Biso      1.000     C          -0.093382           
         C13       1.0000    0.88600   0.99041   0.94531   Biso      1.000     C          -0.100221           
         C14       1.0000    0.90950   0.10854   0.98871   Biso      1.000     C          -0.015676           
         C15       1.0000    0.80828   0.22342   0.97772   Biso      1.000     C          0.605283  
         C16       1.0000    0.57214   0.79360   0.25821   Biso      1.000     C          -0.102559           
         C17       1.0000    0.78328   0.86801   0.57514   Biso      1.000     C          0.66716   
         C18       1.0000    0.47710   0.38240   0.54341   Biso      1.000     C          -0.093382           
         C19       1.0000    0.19650   0.37119   0.21758   Biso      1.000     C          -0.016722           
         C20       1.0000    0.42411   0.28251   0.80961   Biso      1.000     C          -0.09807  
         C21       1.0000    0.42786   0.20640   0.74179   Biso      1.000     C          -0.102562           
         C22       1.0000    0.30350   0.12881   0.71758   Biso      1.000     C          -0.016718           
         C23       1.0000    0.30680   0.05305   0.64196   Biso      1.000     C          0.635914  
         C24       1.0000    0.97710   0.88240   0.95659   Biso      1.000     C          -0.093382           
         C25       1.0000    0.11400   0.00959   0.05469   Biso      1.000     C          -0.10022  
         C26       1.0000    0.19320   0.44695   0.14196   Biso      1.000     C          0.635914  
         C27       1.0000    0.09050   0.89146   0.01129   Biso      1.000     C          -0.015676           
         C28       1.0000    0.21672   0.13199   0.42486   Biso      1.000     C          0.66716   
         C29       1.0000    0.32510   0.37370   0.26285   Biso      1.000     C          -0.111338           
         C30       1.0000    0.32910   0.29770   0.33047   Biso      1.000     C          -0.090599           
         C31       1.0000    0.20448   0.21910   0.35407   Biso      1.000     C          -0.048151           
         C32       1.0000    0.07589   0.21749   0.30961   Biso      1.000     C          -0.09807  
         C33       1.0000    0.07214   0.29360   0.24179   Biso      1.000     C          -0.102559           
         C34       1.0000    0.19172   0.77658   0.02228   Biso      1.000     C          0.605283  
         C35       1.0000    0.67490   0.62630   0.73715   Biso      1.000     C          -0.111339           
         C36       1.0000    0.67090   0.70230   0.66953   Biso      1.000     C          -0.090598           
         C37       1.0000    0.79552   0.78090   0.64593   Biso      1.000     C          -0.048151           
         C38       1.0000    0.52290   0.61760   0.45659   Biso      1.000     C          -0.093382           
         C39       1.0000    0.38600   0.49041   0.55469   Biso      1.000     C          -0.100221           
         C40       1.0000    0.40950   0.60854   0.51129   Biso      1.000     C          -0.015676           
         C41       1.0000    0.30828   0.72342   0.52228   Biso      1.000     C          0.605283  
         C42       1.0000    0.28328   0.36801   0.92486   Biso      1.000     C          0.66716   
         C43       1.0000    0.29552   0.28090   0.85407   Biso      1.000     C          -0.048151           
         C44       1.0000    0.17090   0.20230   0.83047   Biso      1.000     C          -0.090598           
         C45       1.0000    0.92411   0.78251   0.69039   Biso      1.000     C          -0.098069           
         C46       1.0000    0.92786   0.70640   0.75821   Biso      1.000     C          -0.102562           
         C47       1.0000    0.80350   0.62881   0.78242   Biso      1.000     C          -0.016718           
         C48       1.0000    0.80680   0.55305   0.85804   Biso      1.000     C          0.635914  
         H1        1.0000    0.08260   0.20060   0.86090   Biso      1.000     H          0.109626  
         H2        1.0000    0.53820   0.69800   0.42680   Biso      1.000     H          0.118487  
         H3        1.0000    0.01650   0.70750   0.78830   Biso      1.000     H          0.121333  
         H4        1.0000    0.00970   0.83560   0.67460   Biso      1.000     H          0.11241   
         H5        1.0000    0.58260   0.70060   0.63910   Biso      1.000     H          0.109626  
         H6        1.0000    0.58970   0.57240   0.75260   Biso      1.000     H          0.118897  
         H7        1.0000    0.80800   0.98390   0.90810   Biso      1.000     H          0.126224  
         H8        1.0000    0.03820   0.19800   0.07320   Biso      1.000     H          0.118487  
         H9        1.0000    0.48350   0.79250   0.28830   Biso      1.000     H          0.121332  
         H10       1.0000    0.49030   0.66440   0.17460   Biso      1.000     H          0.11241   
         H11       1.0000    0.91740   0.79940   0.13910   Biso      1.000     H          0.109626  
         H12       1.0000    0.91030   0.92760   0.25260   Biso      1.000     H          0.118897  
         H13       1.0000    0.69200   0.51610   0.40810   Biso      1.000     H          0.126224  
         H14       1.0000    0.30800   0.48390   0.59190   Biso      1.000     H          0.126224  
         H15       1.0000    0.98350   0.29250   0.21170   Biso      1.000     H          0.121332  
         H16       1.0000    0.99030   0.16440   0.32540   Biso      1.000     H          0.11241   
         H17       1.0000    0.41740   0.29940   0.36090   Biso      1.000     H          0.109626  
         H18       1.0000    0.41030   0.42760   0.24740   Biso      1.000     H          0.118897  
         H19       1.0000    0.19200   0.01610   0.09190   Biso      1.000     H          0.126224  
         H20       1.0000    0.96180   0.80200   0.92680   Biso      1.000     H          0.118487  
         H21       1.0000    0.51650   0.20750   0.71170   Biso      1.000     H          0.121332  
         H22       1.0000    0.50970   0.33560   0.82540   Biso      1.000     H          0.11241   
         H23       1.0000    0.08970   0.07240   0.74740   Biso      1.000     H          0.118897  
         H24       1.0000    0.46180   0.30200   0.57320   Biso      1.000     H          0.118487  
         Mg1       1.0000    0.62229   0.39732   0.97990   Biso      1.000     Mg          1.388213  
         Mg2       1.0000    0.50000   0.00000   0.50000   Biso      1.000     Mg          1.434448  
         Mg3       1.0000    0.00000   0.50000   0.00000   Biso      1.000     Mg          1.434448  
         Mg4       1.0000    0.12229   0.89732   0.52010   Biso      1.000     Mg          1.388213  
         Mg5       1.0000    0.37771   0.60268   0.02010   Biso      1.000     Mg          1.388213  
         Mg6       1.0000    0.87771   0.10268   0.47990   Biso      1.000     Mg          1.388213  
         O1        1.0000    0.15733   0.38185   0.95245   Biso      1.000     O          -0.61239  
         O2        1.0000    0.40165   0.42851   0.95221   Biso      1.000     O          -0.752956           
         O3        1.0000    0.43006   0.04260   0.61001   Biso      1.000     O          -0.647858           
         O4        1.0000    0.18219   0.00744   0.61564   Biso      1.000     O          -0.698995           
         O5        1.0000    0.15794   0.66147   0.99160   Biso      1.000     O          -0.724303           
         O6        1.0000    0.31255   0.79462   0.05820   Biso      1.000     O          -0.607552           
         O7        1.0000    0.34267   0.11815   0.45245   Biso      1.000     O          -0.61239  
         O8        1.0000    0.09835   0.07149   0.45221   Biso      1.000     O          -0.752957           
         O9        1.0000    0.06994   0.45740   0.11001   Biso      1.000     O          -0.647858           
         O10       1.0000    0.31781   0.49256   0.11564   Biso      1.000     O          -0.698995           
         O11       1.0000    0.65794   0.16147   0.50840   Biso      1.000     O          -0.724303           
         O12       1.0000    0.84267   0.61815   0.04755   Biso      1.000     O          -0.61239  
         O13       1.0000    0.18745   0.70538   0.55820   Biso      1.000     O          -0.607552           
         O14       1.0000    0.59835   0.57149   0.04779   Biso      1.000     O          -0.752956           
         O15       1.0000    0.56994   0.95740   0.38999   Biso      1.000     O          -0.647858           
         O16       1.0000    0.81781   0.99256   0.38436   Biso      1.000     O          -0.698995           
         O17       1.0000    0.84206   0.33853   0.00840   Biso      1.000     O          -0.724303           
         O18       1.0000    0.68745   0.20538   0.94180   Biso      1.000     O          -0.607552           
         O19       1.0000    0.65733   0.88185   0.54755   Biso      1.000     O          -0.61239  
         O20       1.0000    0.90165   0.92851   0.54779   Biso      1.000     O          -0.752956           
         O21       1.0000    0.93006   0.54260   0.88999   Biso      1.000     O          -0.647858           
         O22       1.0000    0.68219   0.50744   0.88436   Biso      1.000     O          -0.698995           
         O23       1.0000    0.81255   0.29462   0.44180   Biso      1.000     O          -0.607551           
         O24       1.0000    0.34206   0.83853   0.49160   Biso      1.000     O          -0.724303 