
##########################################################################
#               Crystallographic Information Format file
#               Produced by PyCifRW module
#
#  This is a CIF file.  CIF has been adopted by the International
#  Union of Crystallography as the standard for data archiving and
#  transmission.
#
#  For information on this file format, follow the CIF links at
#  http://www.iucr.org
##########################################################################

data_image0

_cell_length_a                          10.435
_cell_length_b                          17.4807
_cell_length_c                          17.4807
_cell_angle_alpha                       120
_cell_angle_beta                        90
_cell_angle_gamma                       90
_symmetry_space_group_name_H-M          'P 1'
_symmetry_int_tables_number             1
loop_
  _symmetry_equiv_pos_as_xyz
         'x, y, z' 
loop_
  _atom_site_label
  _atom_site_occupancy
  _atom_site_fract_x
  _atom_site_fract_y
  _atom_site_fract_z
  _atom_site_thermal_displace_type
  _atom_site_B_iso_or_equiv
  _atom_site_type_symbol
  _atom_site_charge
         C1        1.0000    0.98920   0.56570   0.84400   Biso      1.000     C          0.12403099999999999           
         C2        1.0000    0.19363   0.16880   0.52100   Biso      1.000     C          0.28063899999999997           
         C3        1.0000    0.04223   0.05610   0.52500   Biso      1.000     C          0.568384  
         C4        1.0000    0.16143   0.11310   0.56600   Biso      1.000     C          -0.12472899999999999          
         C5        1.0000    0.26513   0.29520   0.84590   Biso      1.000     C          0.057669000000000005          
         C6        1.0000    0.23553   0.20740   0.78680   Biso      1.000     C          -0.21421700000000002          
         C7        1.0000    0.32253   0.15600   0.72170   Biso      1.000     C          0.121118  
         C8        1.0000    0.43763   0.19470   0.71990   Biso      1.000     C          -0.210325           
         C9        1.0000    0.45973   0.28250   0.77990   Biso      1.000     C          0.06175   
         C10       1.0000    0.58977   0.41730   0.67320   Biso      1.000     C          -0.525688           
         C11       1.0000    0.52697   0.47900   0.64780   Biso      1.000     C          0.280447  
         C12       1.0000    0.37557   0.47500   0.53110   Biso      1.000     C          0.5693779999999999  
         C13       1.0000    0.49477   0.43400   0.54710   Biso      1.000     C          -0.12343399999999999          
         C14       1.0000    0.62527   0.34960   0.41260   Biso      1.000     C          -0.12423  
         C15       1.0000    0.59847   0.15410   0.44930   Biso      1.000     C          0.060011  
         C16       1.0000    0.56887   0.21320   0.42060   Biso      1.000     C          -0.214529           
         C17       1.0000    0.65587   0.27830   0.43430   Biso      1.000     C          0.121796  
         C18       1.0000    0.77097   0.28010   0.47480   Biso      1.000     C          -0.21261100000000002          
         C19       1.0000    0.79307   0.22010   0.50260   Biso      1.000     C          0.065604  
         C20       1.0000    0.92310   0.32680   0.74410   Biso      1.000     C          -0.526093           
         C21       1.0000    0.86030   0.35220   0.83120   Biso      1.000     C          0.278856  
         C22       1.0000    0.70890   0.46890   0.94390   Biso      1.000     C          0.57047   
         C23       1.0000    0.82810   0.45290   0.88690   Biso      1.000     C          -0.12509800000000001          
         C24       1.0000    0.95860   0.58740   0.93700   Biso      1.000     C          -0.12480899999999999          
         C25       1.0000    0.93180   0.55070   0.70480   Biso      1.000     C          0.058289999999999995          
         C26       1.0000    0.90220   0.57940   0.79260   Biso      1.000     C          -0.21716799999999997          
         C27       1.0000    0.10430   0.52520   0.80530   Biso      1.000     C          -0.213042           
         C28       1.0000    0.12640   0.49740   0.71750   Biso      1.000     C          0.065014  
         C29       1.0000    0.25643   0.25590   0.58270   Biso      1.000     C          -0.523965           
         C30       1.0000    0.62640   0.50260   0.28250   Biso      1.000     C          0.065012  
         C31       1.0000    0.29193   0.06300   0.65040   Biso      1.000     C          -0.12384300000000001          
         C32       1.0000    0.48920   0.43430   0.15600   Biso      1.000     C          0.12403099999999999           
         C33       1.0000    0.75643   0.74410   0.41730   Biso      1.000     C          -0.523965           
         C34       1.0000    0.69363   0.83120   0.47900   Biso      1.000     C          0.28063899999999997           
         C35       1.0000    0.54223   0.94390   0.47500   Biso      1.000     C          0.568384  
         C36       1.0000    0.66143   0.88690   0.43400   Biso      1.000     C          -0.12472899999999999          
         C37       1.0000    0.79193   0.93700   0.34960   Biso      1.000     C          -0.12384300000000001          
         C38       1.0000    0.76513   0.70480   0.15410   Biso      1.000     C          0.057669000000000005          
         C39       1.0000    0.73553   0.79260   0.21320   Biso      1.000     C          -0.21421700000000002          
         C40       1.0000    0.82253   0.84400   0.27830   Biso      1.000     C          0.121118  
         C41       1.0000    0.93763   0.80530   0.28010   Biso      1.000     C          -0.210325           
         C42       1.0000    0.60430   0.47480   0.19470   Biso      1.000     C          -0.21303899999999998          
         C43       1.0000    0.08977   0.58270   0.32680   Biso      1.000     C          -0.525688           
         C44       1.0000    0.02697   0.52100   0.35220   Biso      1.000     C          0.280447  
         C45       1.0000    0.87557   0.52500   0.46890   Biso      1.000     C          0.5693779999999999  
         C46       1.0000    0.99477   0.56600   0.45290   Biso      1.000     C          -0.12343399999999999          
         C47       1.0000    0.95973   0.71750   0.22010   Biso      1.000     C          0.06175   
         C48       1.0000    0.09847   0.84590   0.55070   Biso      1.000     C          0.060011  
         C49       1.0000    0.40220   0.42060   0.20740   Biso      1.000     C          -0.21716799999999997          
         C50       1.0000    0.12527   0.65040   0.58740   Biso      1.000     C          -0.12423  
         C51       1.0000    0.45860   0.41260   0.06300   Biso      1.000     C          -0.12480899999999999          
         C52       1.0000    0.32810   0.54710   0.11310   Biso      1.000     C          -0.12509800000000001          
         C53       1.0000    0.20890   0.53110   0.05610   Biso      1.000     C          0.57047   
         C54       1.0000    0.43180   0.44930   0.29520   Biso      1.000     C          0.058289999999999995          
         C55       1.0000    0.42310   0.67320   0.25590   Biso      1.000     C          -0.526093           
         C56       1.0000    0.29307   0.77990   0.49740   Biso      1.000     C          0.06560099999999999           
         C57       1.0000    0.27097   0.71990   0.52520   Biso      1.000     C          -0.21260900000000002          
         C58       1.0000    0.15587   0.72170   0.56570   Biso      1.000     C          0.121796  
         C59       1.0000    0.06887   0.78680   0.57940   Biso      1.000     C          -0.214527           
         C60       1.0000    0.36030   0.64780   0.16880   Biso      1.000     C          0.278856  
         H1        1.0000    0.99973   0.83860   0.32180   Biso      1.000     H          0.10488   
         H2        1.0000    0.65793   0.81630   0.20880   Biso      1.000     H          0.130806  
         H3        1.0000    0.70633   0.67100   0.11000   Biso      1.000     H          0.090172  
         H4        1.0000    0.86203   0.97580   0.35510   Biso      1.000     H          0.124911  
         H5        1.0000    0.73433   0.72660   0.35740   Biso      1.000     H          0.154167  
         H6        1.0000    0.64223   0.84530   0.37170   Biso      1.000     H          0.099517  
         H7        1.0000    0.72713   0.70000   0.43070   Biso      1.000     H          0.150137  
         H8        1.0000    0.84773   0.75000   0.42430   Biso      1.000     H          0.166265  
         H9        1.0000    0.03703   0.69240   0.22290   Biso      1.000     H          0.093805  
         H10       1.0000    0.71543   0.95720   0.33350   Biso      1.000     H          0.11541199999999999           
         H11       1.0000    0.84233   0.91930   0.44930   Biso      1.000     H          0.263592  
         H12       1.0000    0.61523   0.82100   0.50350   Biso      1.000     H          0.034000999999999997          
         H13       1.0000    0.18107   0.57570   0.32570   Biso      1.000     H          0.167214  
         H14       1.0000    0.15793   0.18370   0.79120   Biso      1.000     H          0.130805  
         H15       1.0000    0.49973   0.16140   0.67820   Biso      1.000     H          0.10488   
         H16       1.0000    0.53703   0.30760   0.77710   Biso      1.000     H          0.093805  
         H17       1.0000    0.34233   0.08070   0.55070   Biso      1.000     H          0.263592  
         H18       1.0000    0.25913   0.07360   0.42110   Biso      1.000     H          0.330867  
         H19       1.0000    0.68107   0.42430   0.67430   Biso      1.000     H          0.167214  
         H20       1.0000    0.56047   0.43070   0.73070   Biso      1.000     H          0.150863  
         H21       1.0000    0.56767   0.35740   0.63080   Biso      1.000     H          0.15416400000000002           
         H22       1.0000    0.75913   0.92640   0.57890   Biso      1.000     H          0.330868  
         H23       1.0000    0.47557   0.37170   0.52640   Biso      1.000     H          0.099588  
         H24       1.0000    0.54877   0.33350   0.37630   Biso      1.000     H          0.11554500000000001           
         H25       1.0000    0.69537   0.35510   0.37930   Biso      1.000     H          0.12499400000000001           
         H26       1.0000    0.53967   0.11000   0.43900   Biso      1.000     H          0.088831  
         H27       1.0000    0.49127   0.20880   0.39250   Biso      1.000     H          0.130272  
         H28       1.0000    0.83307   0.32180   0.48320   Biso      1.000     H          0.105797  
         H29       1.0000    0.87037   0.22290   0.53050   Biso      1.000     H          0.09264   
         H30       1.0000    0.67567   0.44930   0.53000   Biso      1.000     H          0.264275  
         H31       1.0000    0.92580   0.34750   0.92640   Biso      1.000     H          0.331423  
         H32       1.0000    0.00900   0.47000   0.91930   Biso      1.000     H          0.263842  
         H33       1.0000    0.20370   0.46950   0.69240   Biso      1.000     H          0.092974  
         H34       1.0000    0.16640   0.51680   0.83860   Biso      1.000     H          0.10555999999999999           
         H35       1.0000    0.82460   0.60750   0.81630   Biso      1.000     H          0.13184200000000001           
         H36       1.0000    0.87300   0.56100   0.67100   Biso      1.000     H          0.090154  
         H37       1.0000    0.20633   0.32900   0.89000   Biso      1.000     H          0.090172  
         H38       1.0000    0.02870   0.62070   0.97580   Biso      1.000     H          0.12456800000000001           
         H39       1.0000    0.80890   0.47360   0.84530   Biso      1.000     H          0.10042999999999999           
         H40       1.0000    0.78190   0.31750   0.82100   Biso      1.000     H          0.034276  
         H41       1.0000    0.90100   0.36920   0.72660   Biso      1.000     H          0.15426900000000002           
         H42       1.0000    0.89380   0.26930   0.70000   Biso      1.000     H          0.151282  
         H43       1.0000    0.01440   0.32570   0.75000   Biso      1.000     H          0.16756300000000002           
         H44       1.0000    0.59247   0.57890   0.65250   Biso      1.000     H          0.331896  
         H45       1.0000    0.88210   0.62370   0.95720   Biso      1.000     H          0.115877  
         H46       1.0000    0.36203   0.02420   0.64490   Biso      1.000     H          0.124911  
         H47       1.0000    0.44857   0.50350   0.68250   Biso      1.000     H          0.034086  
         H48       1.0000    0.14223   0.15470   0.62830   Biso      1.000     H          0.099517  
         H49       1.0000    0.06047   0.56930   0.26930   Biso      1.000     H          0.150863  
         H50       1.0000    0.06767   0.64260   0.36920   Biso      1.000     H          0.15416400000000002           
         H51       1.0000    0.94857   0.49650   0.31750   Biso      1.000     H          0.034086  
         H52       1.0000    0.97557   0.62830   0.47360   Biso      1.000     H          0.099588  
         H53       1.0000    0.04877   0.66650   0.62370   Biso      1.000     H          0.11554500000000001           
         H54       1.0000    0.21543   0.04280   0.66650   Biso      1.000     H          0.11541199999999999           
         H55       1.0000    0.03967   0.89000   0.56100   Biso      1.000     H          0.088831  
         H56       1.0000    0.99127   0.79120   0.60750   Biso      1.000     H          0.130272  
         H57       1.0000    0.33307   0.67820   0.51680   Biso      1.000     H          0.105797  
         H58       1.0000    0.37037   0.77710   0.46950   Biso      1.000     H          0.092641  
         H59       1.0000    0.17567   0.55070   0.47000   Biso      1.000     H          0.264275  
         H60       1.0000    0.09247   0.42110   0.34750   Biso      1.000     H          0.331896  
         H61       1.0000    0.51440   0.67430   0.25000   Biso      1.000     H          0.16756300000000002           
         H62       1.0000    0.39380   0.73070   0.30000   Biso      1.000     H          0.151282  
         H63       1.0000    0.19537   0.64490   0.62070   Biso      1.000     H          0.12499400000000001           
         H64       1.0000    0.28190   0.68250   0.17900   Biso      1.000     H          0.034276  
         H65       1.0000    0.40100   0.63080   0.27340   Biso      1.000     H          0.15426900000000002           
         H66       1.0000    0.11523   0.17900   0.49650   Biso      1.000     H          0.034000999999999997          
         H67       1.0000    0.22713   0.30000   0.56930   Biso      1.000     H          0.150137  
         H68       1.0000    0.34773   0.25000   0.57570   Biso      1.000     H          0.166265  
         H69       1.0000    0.42580   0.65250   0.07360   Biso      1.000     H          0.331422  
         H70       1.0000    0.50900   0.53000   0.08070   Biso      1.000     H          0.263842  
         H71       1.0000    0.70370   0.53050   0.30760   Biso      1.000     H          0.092974  
         H72       1.0000    0.23433   0.27340   0.64260   Biso      1.000     H          0.154167  
         H73       1.0000    0.66640   0.48320   0.16140   Biso      1.000     H          0.10555999999999999           
         H74       1.0000    0.32460   0.39250   0.18370   Biso      1.000     H          0.13184200000000001           
         H75       1.0000    0.37300   0.43900   0.32900   Biso      1.000     H          0.090154  
         H76       1.0000    0.52870   0.37930   0.02420   Biso      1.000     H          0.12456800000000001           
         H77       1.0000    0.38210   0.37630   0.04280   Biso      1.000     H          0.115877  
         H78       1.0000    0.30890   0.52640   0.15470   Biso      1.000     H          0.10042999999999999           
         N1        1.0000    0.54100   0.49120   0.33350   Biso      1.000     N          -0.190822           
         N2        1.0000    0.27083   0.05940   0.56340   Biso      1.000     N          -0.298247           
         N3        1.0000    0.37433   0.33350   0.84230   Biso      1.000     N          -0.189778           
         N4        1.0000    0.60417   0.43660   0.49600   Biso      1.000     N          -0.30031199999999997          
         N5        1.0000    0.70767   0.15770   0.49120   Biso      1.000     N          -0.191428           
         N6        1.0000    0.93750   0.50400   0.94060   Biso      1.000     N          -0.299186           
         N7        1.0000    0.87433   0.66650   0.15770   Biso      1.000     N          -0.189777           
         N8        1.0000    0.10417   0.56340   0.50400   Biso      1.000     N          -0.30031199999999997          
         N9        1.0000    0.77083   0.94060   0.43660   Biso      1.000     N          -0.298247           
         N10       1.0000    0.43750   0.49600   0.05940   Biso      1.000     N          -0.299186           
         N11       1.0000    0.04100   0.50880   0.66650   Biso      1.000     N          -0.190822           
         N12       1.0000    0.20767   0.84230   0.50880   Biso      1.000     N          -0.19142699999999999          
         O1        1.0000    0.28313   0.12460   0.45390   Biso      1.000     O          -0.5396449999999999           
         O2        1.0000    0.21910   0.49050   0.97410   Biso      1.000     O          -0.507434           
         O3        1.0000    0.94023   0.09900   0.53850   Biso      1.000     O          -0.5373979999999999           
         O4        1.0000    0.77357   0.53850   0.43950   Biso      1.000     O          -0.538355           
         O5        1.0000    0.11647   0.45390   0.32930   Biso      1.000     O          -0.5410119999999999           
         O6        1.0000    0.88577   0.48360   0.50950   Biso      1.000     O          -0.507145           
         O7        1.0000    0.44980   0.67070   0.12460   Biso      1.000     O          -0.539882           
         O8        1.0000    0.05243   0.97410   0.48360   Biso      1.000     O          -0.506568           
         O9        1.0000    0.10690   0.56050   0.09900   Biso      1.000     O          -0.5383560000000001           
         O10       1.0000    0.55243   0.02590   0.51640   Biso      1.000     O          -0.506568           
         O11       1.0000    0.61647   0.54610   0.67070   Biso      1.000     O          -0.5410119999999999           
         O12       1.0000    0.78313   0.87540   0.54610   Biso      1.000     O          -0.5396449999999999           
         O13       1.0000    0.38577   0.51640   0.49050   Biso      1.000     O          -0.507145           
         O14       1.0000    0.94980   0.32930   0.87540   Biso      1.000     O          -0.539882           
         O15       1.0000    0.60690   0.43950   0.90100   Biso      1.000     O          -0.5383560000000001           
         O16       1.0000    0.71910   0.50950   0.02590   Biso      1.000     O          -0.507434           
         O17       1.0000    0.44023   0.90100   0.46150   Biso      1.000     O          -0.5373979999999999           
         O18       1.0000    0.27357   0.46150   0.56050   Biso      1.000     O          -0.538355           
         Zn1       1.0000    0.74534   0.07126   0.53607   Biso      1.000     Zn          0.32074899999999995           
         Zn2       1.0000    0.07868   0.46393   0.53519   Biso      1.000     Zn          0.32129800000000003           
         Zn3       1.0000    0.41201   0.46481   0.92874   Biso      1.000     Zn          0.321085  
         Zn4       1.0000    0.24534   0.92874   0.46393   Biso      1.000     Zn          0.320747  
         Zn5       1.0000    0.57868   0.53607   0.46481   Biso      1.000     Zn          0.321299  
         Zn6       1.0000    0.91201   0.53519   0.07126   Biso      1.000     Zn          0.32108600000000004 