
##########################################################################
#               Crystallographic Information Format file
#               Produced by PyCifRW module
#
#  This is a CIF file.  CIF has been adopted by the International
#  Union of Crystallography as the standard for data archiving and
#  transmission.
#
#  For information on this file format, follow the CIF links at
#  http://www.iucr.org
##########################################################################

data_image0

_cell_length_a                          8.9529
_cell_length_b                          12.2203
_cell_length_c                          16.7338
_cell_angle_alpha                       90
_cell_angle_beta                        90
_cell_angle_gamma                       110.009
_symmetry_space_group_name_H-M          'P 1'
_symmetry_int_tables_number             1
loop_
  _symmetry_equiv_pos_as_xyz
         'x, y, z' 
loop_
  _atom_site_label
  _atom_site_occupancy
  _atom_site_fract_x
  _atom_site_fract_y
  _atom_site_fract_z
  _atom_site_thermal_displace_type
  _atom_site_B_iso_or_equiv
  _atom_site_type_symbol
  _atom_site_charge
         C1        1.0000    0.12480   0.50580   0.11550   Biso      1.000     C          -0.227409           
         C2        1.0000    0.73540   0.19300   0.48190   Biso      1.000     C          -0.172603           
         C3        1.0000    0.84450   0.14130   0.52450   Biso      1.000     C          0.659387  
         C4        1.0000    0.73360   0.19810   0.05590   Biso      1.000     C          0.698019  
         C5        1.0000    0.87690   0.30810   0.07190   Biso      1.000     C          -0.162774           
         C6        1.0000    0.23880   0.60980   0.13630   Biso      1.000     C          -0.170683           
         C7        1.0000    0.26460   0.80700   0.51810   Biso      1.000     C          -0.172603           
         C8        1.0000    0.99540   0.45590   0.16660   Biso      1.000     C          0.242943  
         C9        1.0000    0.98650   0.51000   0.23780   Biso      1.000     C          -0.197212           
         C10       1.0000    0.10190   0.61680   0.25750   Biso      1.000     C          -0.188828           
         C11       1.0000    0.22460   0.66480   0.20550   Biso      1.000     C          0.244841  
         C12       1.0000    0.40210   0.79640   0.30000   Biso      1.000     C          -0.169536           
         C13       1.0000    0.56190   0.89100   0.29750   Biso      1.000     C          0.68898   
         C14       1.0000    0.62430   0.50640   0.04940   Biso      1.000     C          -0.175026           
         C15       1.0000    0.50320   0.59620   0.95580   Biso      1.000     C          -0.19953  
         C16       1.0000    0.62960   0.60220   0.00620   Biso      1.000     C          0.234834  
         C17       1.0000    0.76460   0.80700   0.98190   Biso      1.000     C          -0.172603           
         C18       1.0000    0.65550   0.85870   0.02450   Biso      1.000     C          0.659387  
         C19       1.0000    0.76640   0.80190   0.55590   Biso      1.000     C          0.698019  
         C20       1.0000    0.62310   0.69190   0.57190   Biso      1.000     C          -0.162774           
         C21       1.0000    0.26120   0.39020   0.63630   Biso      1.000     C          -0.170687           
         C22       1.0000    0.37520   0.49420   0.61550   Biso      1.000     C          -0.227406           
         C23       1.0000    0.50460   0.54410   0.66660   Biso      1.000     C          0.242943  
         C24       1.0000    0.51350   0.49000   0.73780   Biso      1.000     C          -0.197212           
         C25       1.0000    0.87040   0.39780   0.50620   Biso      1.000     C          0.234823  
         C26       1.0000    0.39810   0.38320   0.75750   Biso      1.000     C          -0.188828           
         C27       1.0000    0.99680   0.40380   0.45580   Biso      1.000     C          -0.199529           
         C28       1.0000    0.06190   0.89100   0.20250   Biso      1.000     C          0.68898   
         C29       1.0000    0.12310   0.69190   0.92810   Biso      1.000     C          -0.162774           
         C30       1.0000    0.76120   0.39020   0.86370   Biso      1.000     C          -0.170687           
         C31       1.0000    0.87520   0.49420   0.88450   Biso      1.000     C          -0.227406           
         C32       1.0000    0.00460   0.54410   0.83340   Biso      1.000     C          0.242943  
         C33       1.0000    0.01350   0.49000   0.76220   Biso      1.000     C          -0.197212           
         C34       1.0000    0.89810   0.38320   0.74250   Biso      1.000     C          -0.188828           
         C35       1.0000    0.77540   0.33520   0.79450   Biso      1.000     C          0.244842  
         C36       1.0000    0.59790   0.20360   0.70000   Biso      1.000     C          -0.169536           
         C37       1.0000    0.43810   0.10900   0.70250   Biso      1.000     C          0.68898   
         C38       1.0000    0.37570   0.49360   0.95060   Biso      1.000     C          -0.175022           
         C39       1.0000    0.49680   0.40380   0.04420   Biso      1.000     C          -0.199526           
         C40       1.0000    0.37040   0.39780   0.99380   Biso      1.000     C          0.234833  
         C41       1.0000    0.23540   0.19300   0.01810   Biso      1.000     C          -0.172603           
         C42       1.0000    0.34450   0.14130   0.97550   Biso      1.000     C          0.659387  
         C43       1.0000    0.23360   0.19810   0.44410   Biso      1.000     C          0.698019  
         C44       1.0000    0.37690   0.30810   0.42810   Biso      1.000     C          -0.162775           
         C45       1.0000    0.73880   0.60980   0.36370   Biso      1.000     C          -0.170687           
         C46       1.0000    0.62480   0.50580   0.38450   Biso      1.000     C          -0.227406           
         C47       1.0000    0.49540   0.45590   0.33340   Biso      1.000     C          0.242943  
         C48       1.0000    0.48650   0.51000   0.26220   Biso      1.000     C          -0.197212           
         C49       1.0000    0.60190   0.61680   0.24250   Biso      1.000     C          -0.188828           
         C50       1.0000    0.72460   0.66480   0.29450   Biso      1.000     C          0.244842  
         C51       1.0000    0.90210   0.79640   0.20000   Biso      1.000     C          -0.169536           
         C52       1.0000    0.87570   0.49360   0.54940   Biso      1.000     C          -0.175014           
         C53       1.0000    0.27540   0.33520   0.70550   Biso      1.000     C          0.244842  
         C54       1.0000    0.09790   0.20360   0.80000   Biso      1.000     C          -0.169536           
         C55       1.0000    0.93810   0.10900   0.79750   Biso      1.000     C          0.68898   
         C56       1.0000    0.12430   0.50640   0.45060   Biso      1.000     C          -0.175022           
         C57       1.0000    0.00320   0.59620   0.54420   Biso      1.000     C          -0.199528           
         C58       1.0000    0.12960   0.60220   0.49380   Biso      1.000     C          0.234833  
         C59       1.0000    0.26640   0.80190   0.94410   Biso      1.000     C          0.698019  
         C60       1.0000    0.15550   0.85870   0.47550   Biso      1.000     C          0.659387  
         H1        1.0000    0.02620   0.70970   0.93460   Biso      1.000     H          0.115265  
         H2        1.0000    0.13360   0.46900   0.06800   Biso      1.000     H          0.116118  
         H3        1.0000    0.90330   0.47520   0.27290   Biso      1.000     H          0.130336  
         H4        1.0000    0.09520   0.65440   0.30500   Biso      1.000     H          0.139521  
         H5        1.0000    0.33010   0.82010   0.33350   Biso      1.000     H          0.130587  
         H6        1.0000    0.41190   0.72590   0.32220   Biso      1.000     H          0.127284  
         H7        1.0000    0.70850   0.51020   0.08310   Biso      1.000     H          0.130096  
         H8        1.0000    0.50470   0.66080   0.92600   Biso      1.000     H          0.127376  
         H9        1.0000    0.73270   0.79440   0.92630   Biso      1.000     H          0.11554   
         H10       1.0000    0.87200   0.86280   0.98340   Biso      1.000     H          0.147567  
         H11       1.0000    0.32590   0.64300   0.10310   Biso      1.000     H          0.128087  
         H12       1.0000    0.62180   0.63290   0.53290   Biso      1.000     H          0.109027  
         H13       1.0000    0.17410   0.35700   0.60310   Biso      1.000     H          0.128087  
         H14       1.0000    0.36640   0.53100   0.56800   Biso      1.000     H          0.116118  
         H15       1.0000    0.59670   0.52480   0.77290   Biso      1.000     H          0.130336  
         H16       1.0000    0.40480   0.34560   0.80500   Biso      1.000     H          0.139521  
         H17       1.0000    0.16990   0.17990   0.83350   Biso      1.000     H          0.130587  
         H18       1.0000    0.08810   0.27410   0.82220   Biso      1.000     H          0.127284  
         H19       1.0000    0.23270   0.79440   0.57370   Biso      1.000     H          0.115539  
         H20       1.0000    0.00470   0.66080   0.57400   Biso      1.000     H          0.127376  
         H21       1.0000    0.20850   0.51020   0.41690   Biso      1.000     H          0.130096  
         H22       1.0000    0.52620   0.70970   0.56540   Biso      1.000     H          0.115265  
         H23       1.0000    0.97380   0.29030   0.06540   Biso      1.000     H          0.115265  
         H24       1.0000    0.87820   0.36710   0.03290   Biso      1.000     H          0.109028  
         H25       1.0000    0.62800   0.13720   0.48340   Biso      1.000     H          0.147567  
         H26       1.0000    0.67410   0.35700   0.89690   Biso      1.000     H          0.128087  
         H27       1.0000    0.86640   0.53100   0.93200   Biso      1.000     H          0.116118  
         H28       1.0000    0.09670   0.52480   0.72710   Biso      1.000     H          0.130336  
         H29       1.0000    0.90480   0.34560   0.69500   Biso      1.000     H          0.139521  
         H30       1.0000    0.66990   0.17990   0.66650   Biso      1.000     H          0.130587  
         H31       1.0000    0.58810   0.27410   0.67780   Biso      1.000     H          0.127284  
         H32       1.0000    0.29150   0.48980   0.91690   Biso      1.000     H          0.130096  
         H33       1.0000    0.49530   0.33920   0.07400   Biso      1.000     H          0.127376  
         H34       1.0000    0.26730   0.20560   0.07370   Biso      1.000     H          0.11554   
         H35       1.0000    0.12800   0.13720   0.01660   Biso      1.000     H          0.147567  
         H36       1.0000    0.37820   0.36710   0.46710   Biso      1.000     H          0.109028  
         H37       1.0000    0.47380   0.29030   0.43460   Biso      1.000     H          0.115265  
         H38       1.0000    0.82590   0.64300   0.39690   Biso      1.000     H          0.128087  
         H39       1.0000    0.63360   0.46900   0.43200   Biso      1.000     H          0.116118  
         H40       1.0000    0.40330   0.47520   0.22710   Biso      1.000     H          0.130336  
         H41       1.0000    0.59520   0.65440   0.19500   Biso      1.000     H          0.139521  
         H42       1.0000    0.83010   0.82010   0.16650   Biso      1.000     H          0.130587  
         H43       1.0000    0.91190   0.72590   0.17780   Biso      1.000     H          0.127284  
         H44       1.0000    0.79150   0.48980   0.58310   Biso      1.000     H          0.130095  
         H45       1.0000    0.37200   0.86280   0.51660   Biso      1.000     H          0.147567  
         H46       1.0000    0.76730   0.20560   0.42630   Biso      1.000     H          0.11554   
         H47       1.0000    0.12180   0.63290   0.96710   Biso      1.000     H          0.109028  
         H48       1.0000    0.99530   0.33920   0.42600   Biso      1.000     H          0.127376  
         Nd1       1.0000    0.56367   0.04773   0.88303   Biso      1.000     Nd          2.102566  
         Nd2       1.0000    0.06367   0.04773   0.61697   Biso      1.000     Nd          2.102566  
         Nd3       1.0000    0.43633   0.95227   0.11697   Biso      1.000     Nd          2.102566  
         Nd4       1.0000    0.93633   0.95227   0.38303   Biso      1.000     Nd          2.102566  
         O1        1.0000    0.09730   0.95480   0.26360   Biso      1.000     O          -0.679891           
         O2        1.0000    0.84080   0.77510   0.28010   Biso      1.000     O          -0.302217           
         O3        1.0000    0.37370   0.35270   0.35060   Biso      1.000     O          -0.189756           
         O4        1.0000    0.16580   0.13410   0.38670   Biso      1.000     O          -0.667995           
         O5        1.0000    0.20110   0.18400   0.51620   Biso      1.000     O          -0.655822           
         O6        1.0000    0.37210   0.05810   0.00880   Biso      1.000     O          -0.75854  
         O7        1.0000    0.40000   0.17750   0.90850   Biso      1.000     O          -0.596633           
         O8        1.0000    0.34940   0.09820   0.64300   Biso      1.000     O          -0.677724           
         O9        1.0000    0.15060   0.90180   0.14300   Biso      1.000     O          -0.677724           
         O10       1.0000    0.40270   0.04520   0.76360   Biso      1.000     O          -0.679891           
         O11       1.0000    0.65920   0.22490   0.78010   Biso      1.000     O          -0.302217           
         O12       1.0000    0.12630   0.64730   0.85060   Biso      1.000     O          -0.189756           
         O13       1.0000    0.33420   0.86590   0.88670   Biso      1.000     O          -0.667995           
         O14       1.0000    0.29890   0.81600   0.01620   Biso      1.000     O          -0.655822           
         O15       1.0000    0.12790   0.94190   0.50880   Biso      1.000     O          -0.75854  
         O16       1.0000    0.23490   0.29820   0.98550   Biso      1.000     O          -0.196199           
         O17       1.0000    0.73490   0.29820   0.51450   Biso      1.000     O          -0.196198           
         O18       1.0000    0.90000   0.17750   0.59150   Biso      1.000     O          -0.596633           
         O19       1.0000    0.87210   0.05810   0.49120   Biso      1.000     O          -0.75854  
         O20       1.0000    0.84940   0.09820   0.85700   Biso      1.000     O          -0.677724           
         O21       1.0000    0.90270   0.04520   0.73640   Biso      1.000     O          -0.679891           
         O22       1.0000    0.15920   0.22490   0.71990   Biso      1.000     O          -0.302217           
         O23       1.0000    0.62630   0.64730   0.64940   Biso      1.000     O          -0.189756           
         O24       1.0000    0.83420   0.86590   0.61330   Biso      1.000     O          -0.667995           
         O25       1.0000    0.79890   0.81600   0.48380   Biso      1.000     O          -0.655822           
         O26       1.0000    0.62790   0.94190   0.99120   Biso      1.000     O          -0.75854  
         O27       1.0000    0.60000   0.82250   0.09150   Biso      1.000     O          -0.596633           
         O28       1.0000    0.76510   0.70180   0.01450   Biso      1.000     O          -0.196199           
         O29       1.0000    0.65060   0.90180   0.35700   Biso      1.000     O          -0.677724           
         O30       1.0000    0.59730   0.95480   0.23640   Biso      1.000     O          -0.679891           
         O31       1.0000    0.34080   0.77510   0.21990   Biso      1.000     O          -0.302217           
         O32       1.0000    0.87370   0.35270   0.14940   Biso      1.000     O          -0.189756           
         O33       1.0000    0.66580   0.13410   0.11330   Biso      1.000     O          -0.667995           
         O34       1.0000    0.70110   0.18400   0.98380   Biso      1.000     O          -0.655822           
         O35       1.0000    0.10000   0.82250   0.40850   Biso      1.000     O          -0.596633           
         O36       1.0000    0.26510   0.70180   0.48550   Biso      1.000     O          -0.196199 