
##########################################################################
#               Crystallographic Information Format file
#               Produced by PyCifRW module
#
#  This is a CIF file.  CIF has been adopted by the International
#  Union of Crystallography as the standard for data archiving and
#  transmission.
#
#  For information on this file format, follow the CIF links at
#  http://www.iucr.org
##########################################################################

data_image0

_cell_length_a                          8.9406
_cell_length_b                          12.1306
_cell_length_c                          16.6998
_cell_angle_alpha                       90
_cell_angle_beta                        90
_cell_angle_gamma                       109.281
_symmetry_space_group_name_H-M          'P 1'
_symmetry_int_tables_number             1
loop_
  _symmetry_equiv_pos_as_xyz
         'x, y, z' 
loop_
  _atom_site_label
  _atom_site_occupancy
  _atom_site_fract_x
  _atom_site_fract_y
  _atom_site_fract_z
  _atom_site_thermal_displace_type
  _atom_site_B_iso_or_equiv
  _atom_site_type_symbol
  _atom_site_charge
         C1        1.0000    0.12230   0.50310   0.94921   Biso      1.000     C          -0.174984           
         C2        1.0000    0.49460   0.40170   0.54399   Biso      1.000     C          -0.20526799999999998          
         C3        1.0000    0.43990   0.10970   0.20218   Biso      1.000     C          0.6868340000000001  
         C4        1.0000    0.63000   0.60190   0.50691   Biso      1.000     C          0.233602  
         C5        1.0000    0.01080   0.49090   0.26010   Biso      1.000     C          -0.192689           
         C6        1.0000    0.99460   0.40170   0.95601   Biso      1.000     C          -0.205267           
         C7        1.0000    0.23160   0.19800   0.94172   Biso      1.000     C          0.699379  
         C8        1.0000    0.87610   0.30400   0.57440   Biso      1.000     C          -0.163499           
         C9        1.0000    0.37870   0.49580   0.11571   Biso      1.000     C          -0.22836199999999998          
         C10       1.0000    0.87870   0.49580   0.38429   Biso      1.000     C          -0.228361           
         C11       1.0000    0.59890   0.20530   0.19991   Biso      1.000     C          -0.168994           
         C12       1.0000    0.37770   0.49690   0.44921   Biso      1.000     C          -0.174985           
         C13       1.0000    0.48920   0.50910   0.76010   Biso      1.000     C          -0.192689           
         C14       1.0000    0.51080   0.49090   0.23990   Biso      1.000     C          -0.192689           
         C15       1.0000    0.13000   0.60190   0.99309   Biso      1.000     C          0.233604  
         C16       1.0000    0.23620   0.60960   0.63552   Biso      1.000     C          -0.173368           
         C17       1.0000    0.39630   0.38480   0.25942   Biso      1.000     C          -0.187435           
         C18       1.0000    0.56010   0.89030   0.79782   Biso      1.000     C          0.6868340000000001  
         C19       1.0000    0.12130   0.50420   0.61571   Biso      1.000     C          -0.228361           
         C20       1.0000    0.27480   0.33540   0.20602   Biso      1.000     C          0.24077199999999999           
         C21       1.0000    0.37610   0.30400   0.92560   Biso      1.000     C          -0.163499           
         C22       1.0000    0.09890   0.20530   0.30009   Biso      1.000     C          -0.168994           
         C23       1.0000    0.99680   0.45460   0.66788   Biso      1.000     C          0.243221  
         C24       1.0000    0.06010   0.89030   0.70218   Biso      1.000     C          0.6868340000000001  
         C25       1.0000    0.50540   0.59830   0.45601   Biso      1.000     C          -0.205267           
         C26       1.0000    0.65610   0.85690   0.52600   Biso      1.000     C          0.656786  
         C27       1.0000    0.89630   0.38480   0.24058   Biso      1.000     C          -0.187435           
         C28       1.0000    0.73160   0.19800   0.55828   Biso      1.000     C          0.699379  
         C29       1.0000    0.93990   0.10970   0.29782   Biso      1.000     C          0.6868340000000001  
         C30       1.0000    0.26840   0.80200   0.44172   Biso      1.000     C          0.699379  
         C31       1.0000    0.84390   0.14310   0.02600   Biso      1.000     C          0.656786  
         C32       1.0000    0.50320   0.54540   0.16788   Biso      1.000     C          0.243223  
         C33       1.0000    0.10370   0.61520   0.75942   Biso      1.000     C          -0.187435           
         C34       1.0000    0.60370   0.61520   0.74058   Biso      1.000     C          -0.187435           
         C35       1.0000    0.90110   0.79470   0.69991   Biso      1.000     C          -0.168994           
         C36       1.0000    0.72520   0.66460   0.79398   Biso      1.000     C          0.24077199999999999           
         C37       1.0000    0.76870   0.80560   0.48470   Biso      1.000     C          -0.173713           
         C38       1.0000    0.76380   0.39040   0.36448   Biso      1.000     C          -0.173368           
         C39       1.0000    0.26870   0.80560   0.01530   Biso      1.000     C          -0.173713           
         C40       1.0000    0.37000   0.39810   0.49309   Biso      1.000     C          0.233604  
         C41       1.0000    0.73620   0.60960   0.86448   Biso      1.000     C          -0.17336400000000002          
         C42       1.0000    0.49680   0.45460   0.83212   Biso      1.000     C          0.243222  
         C43       1.0000    0.00320   0.54540   0.33212   Biso      1.000     C          0.243222  
         C44       1.0000    0.62130   0.50420   0.88429   Biso      1.000     C          -0.228361           
         C45       1.0000    0.98920   0.50910   0.73990   Biso      1.000     C          -0.192687           
         C46       1.0000    0.23130   0.19440   0.51530   Biso      1.000     C          -0.173713           
         C47       1.0000    0.77480   0.33540   0.29398   Biso      1.000     C          0.24077600000000002           
         C48       1.0000    0.34390   0.14310   0.47400   Biso      1.000     C          0.656786  
         C49       1.0000    0.87770   0.49690   0.05079   Biso      1.000     C          -0.174984           
         C50       1.0000    0.40110   0.79470   0.80009   Biso      1.000     C          -0.168994           
         C51       1.0000    0.76840   0.80200   0.05828   Biso      1.000     C          0.699379  
         C52       1.0000    0.62390   0.69600   0.07440   Biso      1.000     C          -0.163499           
         C53       1.0000    0.15610   0.85690   0.97400   Biso      1.000     C          0.656786  
         C54       1.0000    0.87000   0.39810   0.00691   Biso      1.000     C          0.233604  
         C55       1.0000    0.22520   0.66460   0.70602   Biso      1.000     C          0.24077600000000002           
         C56       1.0000    0.73130   0.19440   0.98470   Biso      1.000     C          -0.173713           
         C57       1.0000    0.00540   0.59830   0.04399   Biso      1.000     C          -0.205267           
         C58       1.0000    0.62230   0.50310   0.55079   Biso      1.000     C          -0.174982           
         C59       1.0000    0.26380   0.39040   0.13552   Biso      1.000     C          -0.17336400000000002          
         C60       1.0000    0.12390   0.69600   0.42560   Biso      1.000     C          -0.163499           
         H1        1.0000    0.91250   0.72400   0.67770   Biso      1.000     H          0.12658699999999998           
         H2        1.0000    0.61950   0.63630   0.03500   Biso      1.000     H          0.111452  
         H3        1.0000    0.82830   0.81820   0.66640   Biso      1.000     H          0.12900899999999998           
         H4        1.0000    0.38050   0.36370   0.96500   Biso      1.000     H          0.111452  
         H5        1.0000    0.58750   0.27600   0.17770   Biso      1.000     H          0.12658699999999998           
         H6        1.0000    0.24150   0.79520   0.07170   Biso      1.000     H          0.11847   
         H7        1.0000    0.75850   0.20480   0.92830   Biso      1.000     H          0.11847   
         H8        1.0000    0.90710   0.47460   0.77550   Biso      1.000     H          0.12929300000000002           
         H9        1.0000    0.00820   0.66400   0.07340   Biso      1.000     H          0.12728399999999998           
         H10       1.0000    0.87190   0.53290   0.43230   Biso      1.000     H          0.11578699999999999           
         H11       1.0000    0.20460   0.50520   0.91460   Biso      1.000     H          0.129167  
         H12       1.0000    0.40170   0.34790   0.30760   Biso      1.000     H          0.13725199999999999           
         H13       1.0000    0.41250   0.72400   0.82230   Biso      1.000     H          0.12658699999999998           
         H14       1.0000    0.02940   0.71760   0.43170   Biso      1.000     H          0.11854   
         H15       1.0000    0.25850   0.20480   0.57170   Biso      1.000     H          0.11847   
         H16       1.0000    0.74150   0.79520   0.42830   Biso      1.000     H          0.11847   
         H17       1.0000    0.52940   0.71760   0.06830   Biso      1.000     H          0.11854   
         H18       1.0000    0.37190   0.53290   0.06770   Biso      1.000     H          0.11578800000000002           
         H19       1.0000    0.17940   0.35710   0.10100   Biso      1.000     H          0.127521  
         H20       1.0000    0.62450   0.13940   0.98870   Biso      1.000     H          0.147921  
         H21       1.0000    0.09290   0.52540   0.22450   Biso      1.000     H          0.129294  
         H22       1.0000    0.67940   0.35710   0.39900   Biso      1.000     H          0.127521  
         H23       1.0000    0.32830   0.81820   0.83360   Biso      1.000     H          0.12900899999999998           
         H24       1.0000    0.99180   0.33600   0.92660   Biso      1.000     H          0.12728399999999998           
         H25       1.0000    0.59290   0.52540   0.27550   Biso      1.000     H          0.129294  
         H26       1.0000    0.37550   0.86060   0.01130   Biso      1.000     H          0.147921  
         H27       1.0000    0.09830   0.65210   0.80760   Biso      1.000     H          0.13725199999999999           
         H28       1.0000    0.12450   0.13940   0.51130   Biso      1.000     H          0.147921  
         H29       1.0000    0.97060   0.28240   0.56830   Biso      1.000     H          0.11854   
         H30       1.0000    0.90170   0.34790   0.19240   Biso      1.000     H          0.13725199999999999           
         H31       1.0000    0.62810   0.46710   0.93230   Biso      1.000     H          0.11578699999999999           
         H32       1.0000    0.50820   0.66400   0.42660   Biso      1.000     H          0.12728399999999998           
         H33       1.0000    0.40710   0.47460   0.72450   Biso      1.000     H          0.129294  
         H34       1.0000    0.87550   0.86060   0.48870   Biso      1.000     H          0.147921  
         H35       1.0000    0.59830   0.65210   0.69240   Biso      1.000     H          0.13725199999999999           
         H36       1.0000    0.49180   0.33600   0.57340   Biso      1.000     H          0.12728399999999998           
         H37       1.0000    0.82060   0.64290   0.89900   Biso      1.000     H          0.127521  
         H38       1.0000    0.17170   0.18180   0.33360   Biso      1.000     H          0.12900899999999998           
         H39       1.0000    0.67170   0.18180   0.16640   Biso      1.000     H          0.12900899999999998           
         H40       1.0000    0.08750   0.27600   0.32230   Biso      1.000     H          0.12658699999999998           
         H41       1.0000    0.70460   0.50520   0.58540   Biso      1.000     H          0.129167  
         H42       1.0000    0.47060   0.28240   0.93170   Biso      1.000     H          0.11854   
         H43       1.0000    0.11950   0.63630   0.46500   Biso      1.000     H          0.111452  
         H44       1.0000    0.29540   0.49480   0.41460   Biso      1.000     H          0.129167  
         H45       1.0000    0.32060   0.64290   0.60100   Biso      1.000     H          0.127521  
         H46       1.0000    0.12810   0.46710   0.56770   Biso      1.000     H          0.11578699999999999           
         H47       1.0000    0.88050   0.36370   0.53500   Biso      1.000     H          0.111452  
         H48       1.0000    0.79540   0.49480   0.08540   Biso      1.000     H          0.129167  
         Nd1       1.0000    0.06697   0.04804   0.11685   Biso      1.000     Nd          2.1036200000000003  
         Nd2       1.0000    0.43303   0.95196   0.61685   Biso      1.000     Nd          2.1036200000000003  
         Nd3       1.0000    0.56697   0.04804   0.38315   Biso      1.000     Nd          2.1036189999999997  
         Nd4       1.0000    0.93303   0.95196   0.88315   Biso      1.000     Nd          2.1036200000000003  
         O1        1.0000    0.90650   0.04537   0.23700   Biso      1.000     O          -0.679672           
         O2        1.0000    0.40240   0.18064   0.40815   Biso      1.000     O          -0.5863229999999999           
         O3        1.0000    0.87520   0.35105   0.65226   Biso      1.000     O          -0.193962           
         O4        1.0000    0.12480   0.64895   0.34774   Biso      1.000     O          -0.193962           
         O5        1.0000    0.37010   0.05760   0.50776   Biso      1.000     O          -0.763848           
         O6        1.0000    0.62480   0.64895   0.15226   Biso      1.000     O          -0.19396300000000002          
         O7        1.0000    0.62990   0.94240   0.49224   Biso      1.000     O          -0.763848           
         O8        1.0000    0.30020   0.81697   0.51456   Biso      1.000     O          -0.663763           
         O9        1.0000    0.14690   0.90028   0.64219   Biso      1.000     O          -0.6744180000000001           
         O10       1.0000    0.16050   0.13559   0.88470   Biso      1.000     O          -0.662875           
         O11       1.0000    0.85310   0.09972   0.35781   Biso      1.000     O          -0.6744180000000001           
         O12       1.0000    0.76620   0.69688   0.51701   Biso      1.000     O          -0.193501           
         O13       1.0000    0.40650   0.04537   0.26300   Biso      1.000     O          -0.679672           
         O14       1.0000    0.64690   0.90028   0.85781   Biso      1.000     O          -0.6744180000000001           
         O15       1.0000    0.59760   0.81936   0.59185   Biso      1.000     O          -0.5863229999999999           
         O16       1.0000    0.09760   0.81936   0.90815   Biso      1.000     O          -0.5863229999999999           
         O17       1.0000    0.12990   0.94240   0.00776   Biso      1.000     O          -0.763848           
         O18       1.0000    0.34080   0.77358   0.71976   Biso      1.000     O          -0.29583000000000004          
         O19       1.0000    0.26620   0.69688   0.98299   Biso      1.000     O          -0.1935   
         O20       1.0000    0.83950   0.86441   0.11530   Biso      1.000     O          -0.662875           
         O21       1.0000    0.59350   0.95463   0.73700   Biso      1.000     O          -0.679672           
         O22       1.0000    0.84080   0.77358   0.78024   Biso      1.000     O          -0.29583000000000004          
         O23       1.0000    0.35310   0.09972   0.14219   Biso      1.000     O          -0.6744180000000001           
         O24       1.0000    0.87010   0.05760   0.99224   Biso      1.000     O          -0.763848           
         O25       1.0000    0.73380   0.30312   0.01701   Biso      1.000     O          -0.193501           
         O26       1.0000    0.33950   0.86441   0.38470   Biso      1.000     O          -0.662876           
         O27       1.0000    0.19980   0.18303   0.01456   Biso      1.000     O          -0.663763           
         O28       1.0000    0.80020   0.81697   0.98544   Biso      1.000     O          -0.663763           
         O29       1.0000    0.90240   0.18064   0.09185   Biso      1.000     O          -0.5863229999999999           
         O30       1.0000    0.09350   0.95463   0.76300   Biso      1.000     O          -0.679672           
         O31       1.0000    0.65920   0.22642   0.28024   Biso      1.000     O          -0.29583000000000004          
         O32       1.0000    0.37520   0.35105   0.84774   Biso      1.000     O          -0.19396300000000002          
         O33       1.0000    0.69980   0.18303   0.48544   Biso      1.000     O          -0.663763           
         O34       1.0000    0.66050   0.13559   0.61530   Biso      1.000     O          -0.662875           
         O35       1.0000    0.15920   0.22642   0.21976   Biso      1.000     O          -0.29583000000000004          
         O36       1.0000    0.23380   0.30312   0.48299   Biso      1.000     O          -0.1935 