
##########################################################################
#               Crystallographic Information Format file
#               Produced by PyCifRW module
#
#  This is a CIF file.  CIF has been adopted by the International
#  Union of Crystallography as the standard for data archiving and
#  transmission.
#
#  For information on this file format, follow the CIF links at
#  http://www.iucr.org
##########################################################################

data_image0

_cell_length_a                          9.9355
_cell_length_b                          12.1661
_cell_length_c                          23.473
_cell_angle_alpha                       75.392
_cell_angle_beta                        80.66
_cell_angle_gamma                       79.549
_symmetry_space_group_name_H-M          'P 1'
_symmetry_int_tables_number             1
loop_
  _symmetry_equiv_pos_as_xyz
         'x, y, z' 
loop_
  _atom_site_label
  _atom_site_occupancy
  _atom_site_fract_x
  _atom_site_fract_y
  _atom_site_fract_z
  _atom_site_thermal_displace_type
  _atom_site_B_iso_or_equiv
  _atom_site_type_symbol
  _atom_site_charge
         C1        1.0000    0.55840   0.98470   0.12720   Biso      1.000     C          -0.10690699999999999          
         C2        1.0000    0.79080   0.99760   0.98290   Biso      1.000     C          0.029278  
         C3        1.0000    0.33770   0.81360   0.35040   Biso      1.000     C          -0.003744           
         C4        1.0000    0.17890   0.52630   0.83190   Biso      1.000     C          -0.085994           
         C5        1.0000    0.12320   0.52250   0.87980   Biso      1.000     C          -0.11218900000000001          
         C6        1.0000    0.71800   0.09030   0.94510   Biso      1.000     C          0.058192999999999995          
         C7        1.0000    0.53840   0.11250   0.02850   Biso      1.000     C          0.025896  
         C8        1.0000    0.61320   0.02180   0.06560   Biso      1.000     C          0.058432000000000005          
         C9        1.0000    0.73860   0.96360   0.04400   Biso      1.000     C          0.033605  
         C10       1.0000    0.27100   0.75780   0.41130   Biso      1.000     C          0.547632  
         C11       1.0000    0.82510   0.37680   0.68890   Biso      1.000     C          -0.099258           
         C12       1.0000    0.77590   0.13320   0.88540   Biso      1.000     C          -0.093253           
         C13       1.0000    0.25120   0.51360   0.67300   Biso      1.000     C          -0.093664           
         C14       1.0000    0.06020   0.51490   0.94080   Biso      1.000     C          0.039998  
         C15       1.0000    0.07270   0.51810   0.04330   Biso      1.000     C          0.028825999999999997          
         C16       1.0000    0.95500   0.34600   0.66220   Biso      1.000     C          -0.00158  
         C17       1.0000    0.38250   0.53880   0.65810   Biso      1.000     C          -0.010215           
         C18       1.0000    0.46380   0.76220   0.32760   Biso      1.000     C          -0.09456200000000001          
         C19       1.0000    0.13130   0.53520   0.98240   Biso      1.000     C          0.026161  
         C20       1.0000    0.45600   0.54270   0.59710   Biso      1.000     C          0.6240760000000001  
         C21       1.0000    0.99820   0.40550   0.59860   Biso      1.000     C          0.6347    
         C22       1.0000    0.59000   0.14720   0.96710   Biso      1.000     C          0.029029000000000003          
         C23       1.0000    0.98230   0.84540   0.99870   Biso      1.000     C          -0.07216399999999999          
         C24       1.0000    0.45340   0.90520   0.23610   Biso      1.000     C          0.134936  
         C25       1.0000    0.50880   0.23580   0.93080   Biso      1.000     C          -0.1303   
         C26       1.0000    0.27180   0.91080   0.31690   Biso      1.000     C          -0.097674           
         C27       1.0000    0.34040   0.25880   0.01270   Biso      1.000     C          -0.07523300000000001          
         C28       1.0000    0.33360   0.58860   0.00910   Biso      1.000     C          -0.08086  
         C29       1.0000    0.93110   0.81310   0.05870   Biso      1.000     C          -0.070538           
         C30       1.0000    0.38810   0.28960   0.95220   Biso      1.000     C          -0.07312300000000001          
         C31       1.0000    0.00190   0.20630   0.75070   Biso      1.000     C          -0.149279           
         C32       1.0000    0.44550   0.55950   0.70070   Biso      1.000     C          -0.095617           
         C33       1.0000    0.81440   0.87010   0.08010   Biso      1.000     C          -0.12044400000000001          
         C34       1.0000    0.91520   0.93640   0.96120   Biso      1.000     C          -0.125196           
         C35       1.0000    0.87080   0.23590   0.77750   Biso      1.000     C          0.136113  
         C36       1.0000    0.18340   0.50880   0.72910   Biso      1.000     C          -0.144924           
         C37       1.0000    0.78420   0.32290   0.74660   Biso      1.000     C          -0.142469           
         C38       1.0000    0.24560   0.52830   0.77210   Biso      1.000     C          0.143617  
         C39       1.0000    0.51190   0.94970   0.17610   Biso      1.000     C          -0.0681   
         C40       1.0000    0.41210   0.17310   0.04910   Biso      1.000     C          -0.127843           
         C41       1.0000    0.32730   0.95530   0.25910   Biso      1.000     C          -0.139323           
         C42       1.0000    0.04210   0.26150   0.69350   Biso      1.000     C          -0.090515           
         C43       1.0000    0.82270   0.17630   0.83750   Biso      1.000     C          -0.070604           
         C44       1.0000    0.52230   0.80910   0.27060   Biso      1.000     C          -0.145927           
         C45       1.0000    0.26410   0.57140   0.96740   Biso      1.000     C          -0.13825199999999999          
         C46       1.0000    0.15020   0.53770   0.08470   Biso      1.000     C          -0.137652           
         C47       1.0000    0.00180   0.59450   0.40140   Biso      1.000     C          0.634696  
         C48       1.0000    0.54400   0.45730   0.40290   Biso      1.000     C          0.624078  
         C49       1.0000    0.86870   0.46480   0.01760   Biso      1.000     C          0.026161  
         C50       1.0000    0.44160   0.01530   0.87280   Biso      1.000     C          -0.106899           
         C51       1.0000    0.58790   0.82690   0.95090   Biso      1.000     C          -0.127879           
         C52       1.0000    0.48810   0.05030   0.82390   Biso      1.000     C          -0.068099           
         C53       1.0000    0.75440   0.47170   0.22790   Biso      1.000     C          0.143592  
         C54       1.0000    0.21580   0.67710   0.25340   Biso      1.000     C          -0.14247  
         C55       1.0000    0.84980   0.46230   0.91530   Biso      1.000     C          -0.137654           
         C56       1.0000    0.81660   0.49120   0.27090   Biso      1.000     C          -0.14491700000000002          
         C57       1.0000    0.08480   0.06360   0.03880   Biso      1.000     C          -0.12520699999999998          
         C58       1.0000    0.18560   0.12990   0.91990   Biso      1.000     C          -0.120484           
         C59       1.0000    0.95790   0.73850   0.30650   Biso      1.000     C          -0.090536           
         C60       1.0000    0.55450   0.44050   0.29930   Biso      1.000     C          -0.09562899999999999          
         C61       1.0000    0.61190   0.71040   0.04780   Biso      1.000     C          -0.073154           
         C62       1.0000    0.06890   0.18690   0.94130   Biso      1.000     C          -0.0705   
         C63       1.0000    0.66640   0.41140   0.99090   Biso      1.000     C          -0.080861           
         C64       1.0000    0.65960   0.74120   0.98730   Biso      1.000     C          -0.075198           
         C65       1.0000    0.72820   0.08920   0.68310   Biso      1.000     C          -0.09768099999999999          
         C66       1.0000    0.62110   0.44610   0.24170   Biso      1.000     C          -0.162712           
         C67       1.0000    0.72430   0.42820   0.93210   Biso      1.000     C          -0.07750800000000001          
         C68       1.0000    0.67270   0.04470   0.74090   Biso      1.000     C          -0.139319           
         C69       1.0000    0.01770   0.15460   0.00130   Biso      1.000     C          -0.072159           
         C70       1.0000    0.99810   0.79370   0.24930   Biso      1.000     C          -0.149259           
         C71       1.0000    0.17730   0.82370   0.16250   Biso      1.000     C          -0.07077  
         C72       1.0000    0.47770   0.19090   0.72940   Biso      1.000     C          -0.145926           
         C73       1.0000    0.73590   0.42860   0.03260   Biso      1.000     C          -0.138248           
         C74       1.0000    0.53620   0.23780   0.67240   Biso      1.000     C          -0.094556           
         C75       1.0000    0.61750   0.46120   0.34190   Biso      1.000     C          -0.010208           
         C76       1.0000    0.04500   0.65400   0.33780   Biso      1.000     C          -0.00159  
         C77       1.0000    0.92730   0.48190   0.95670   Biso      1.000     C          0.028824000000000002          
         C78       1.0000    0.93980   0.48510   0.05920   Biso      1.000     C          0.040014  
         C79       1.0000    0.74880   0.48640   0.32700   Biso      1.000     C          -0.093657           
         C80       1.0000    0.41000   0.85280   0.03290   Biso      1.000     C          0.029026  
         C81       1.0000    0.22410   0.86680   0.11460   Biso      1.000     C          -0.093086           
         C82       1.0000    0.72900   0.24220   0.58870   Biso      1.000     C          0.547676  
         C83       1.0000    0.26140   0.03640   0.95600   Biso      1.000     C          0.03361   
         C84       1.0000    0.38680   0.97820   0.93440   Biso      1.000     C          0.058427  
         C85       1.0000    0.46160   0.88750   0.97150   Biso      1.000     C          0.025904000000000003          
         C86       1.0000    0.28200   0.90970   0.05490   Biso      1.000     C          0.058170000000000006          
         C87       1.0000    0.87680   0.47750   0.12020   Biso      1.000     C          -0.112331           
         C88       1.0000    0.82110   0.47370   0.16810   Biso      1.000     C          -0.085859           
         C89       1.0000    0.66230   0.18640   0.64960   Biso      1.000     C          -0.00374  
         C90       1.0000    0.20920   0.00240   0.01710   Biso      1.000     C          0.029281  
         C91       1.0000    0.17490   0.62320   0.31110   Biso      1.000     C          -0.099246           
         C92       1.0000    0.54660   0.09480   0.76390   Biso      1.000     C          0.134945  
         C93       1.0000    0.12920   0.76410   0.22250   Biso      1.000     C          0.136141  
         C94       1.0000    0.49120   0.76420   0.06920   Biso      1.000     C          -0.130277           
         C95       1.0000    0.37890   0.55390   0.75830   Biso      1.000     C          -0.162715           
         C96       1.0000    0.27570   0.57180   0.06790   Biso      1.000     C          -0.07750900000000001          
         Eu1       1.0000    0.26369   0.48216   0.49550   Biso      1.000     Eu          1.4454049999999998  
         Eu2       1.0000    0.73631   0.51784   0.50450   Biso      1.000     Eu          1.445418  
         H1        1.0000    0.93680   0.19560   0.01590   Biso      1.000     H          0.10683   
         H2        1.0000    0.42380   0.56740   0.78720   Biso      1.000     H          0.11534900000000001           
         H3        1.0000    0.18930   0.94750   0.33290   Biso      1.000     H          0.12626199999999999           
         H4        1.0000    0.25850   0.29800   0.02780   Biso      1.000     H          0.10525799999999999           
         H5        1.0000    0.97860   0.75170   0.08370   Biso      1.000     H          0.10520499999999999           
         H6        1.0000    0.33630   0.34710   0.92690   Biso      1.000     H          0.103216  
         H7        1.0000    0.06320   0.14890   0.77140   Biso      1.000     H          0.118024  
         H8        1.0000    0.53460   0.57760   0.69140   Biso      1.000     H          0.11931300000000002           
         H9        1.0000    0.78190   0.84760   0.12010   Biso      1.000     H          0.113724  
         H10       1.0000    0.95140   0.95780   0.92160   Biso      1.000     H          0.118467  
         H11       1.0000    0.09360   0.49200   0.73780   Biso      1.000     H          0.114771  
         H12       1.0000    0.11350   0.52670   0.12440   Biso      1.000     H          0.11606400000000001           
         H13       1.0000    0.69680   0.34600   0.76480   Biso      1.000     H          0.112409  
         H14       1.0000    0.37770   0.15310   0.08900   Biso      1.000     H          0.11742899999999999           
         H15       1.0000    0.13070   0.24070   0.67570   Biso      1.000     H          0.119457  
         H16       1.0000    0.60810   0.77560   0.25570   Biso      1.000     H          0.115596  
         H17       1.0000    0.30420   0.58340   0.92810   Biso      1.000     H          0.11496700000000001           
         H18       1.0000    0.53980   0.25780   0.89060   Biso      1.000     H          0.112036  
         H19       1.0000    0.76430   0.43430   0.66800   Biso      1.000     H          0.12383499999999999           
         H20       1.0000    0.20650   0.49930   0.64430   Biso      1.000     H          0.11303599999999998           
         H21       1.0000    0.50950   0.69640   0.35040   Biso      1.000     H          0.12081300000000002           
         H22       1.0000    0.32360   0.58420   0.09610   Biso      1.000     H          0.10661300000000001           
         H23       1.0000    0.27910   0.01900   0.23580   Biso      1.000     H          0.11798900000000001           
         H24       1.0000    0.42020   0.61180   0.99800   Biso      1.000     H          0.101948  
         H25       1.0000    0.49050   0.30360   0.64960   Biso      1.000     H          0.120815  
         H26       1.0000    0.72090   0.98100   0.76420   Biso      1.000     H          0.117993  
         H27       1.0000    0.67640   0.41580   0.90390   Biso      1.000     H          0.10661500000000002           
         H28       1.0000    0.57620   0.43260   0.21280   Biso      1.000     H          0.115345  
         H29       1.0000    0.81070   0.05250   0.66710   Biso      1.000     H          0.126254  
         H30       1.0000    0.74150   0.70200   0.97220   Biso      1.000     H          0.10525599999999999           
         H31       1.0000    0.57980   0.38820   0.00200   Biso      1.000     H          0.101948  
         H32       1.0000    0.06320   0.80440   0.98410   Biso      1.000     H          0.106831  
         H33       1.0000    0.66370   0.65290   0.07310   Biso      1.000     H          0.103217  
         H34       1.0000    0.93680   0.85110   0.22860   Biso      1.000     H          0.11802699999999999           
         H35       1.0000    0.46540   0.42240   0.30860   Biso      1.000     H          0.119314  
         H36       1.0000    0.21810   0.15240   0.87990   Biso      1.000     H          0.11373   
         H37       1.0000    0.02140   0.24830   0.91630   Biso      1.000     H          0.10520399999999999           
         H38       1.0000    0.90640   0.50800   0.26220   Biso      1.000     H          0.114771  
         H39       1.0000    0.88650   0.47330   0.87560   Biso      1.000     H          0.116066  
         H40       1.0000    0.30320   0.65400   0.23520   Biso      1.000     H          0.11241500000000001           
         H41       1.0000    0.62230   0.84690   0.91100   Biso      1.000     H          0.117435  
         H42       1.0000    0.86930   0.75930   0.32430   Biso      1.000     H          0.11947   
         H43       1.0000    0.39190   0.22440   0.74430   Biso      1.000     H          0.115598  
         H44       1.0000    0.69580   0.41660   0.07190   Biso      1.000     H          0.11496400000000001           
         H45       1.0000    0.46020   0.74220   0.10940   Biso      1.000     H          0.11203099999999999           
         H46       1.0000    0.23570   0.56570   0.33200   Biso      1.000     H          0.12383499999999999           
         H47       1.0000    0.79350   0.50070   0.35570   Biso      1.000     H          0.113028  
         H48       1.0000    0.04860   0.04220   0.07840   Biso      1.000     H          0.11846199999999998           
         O1        1.0000    0.09470   0.53650   0.43162   Biso      1.000     O          -0.645482           
         O2        1.0000    0.60580   0.47080   0.44166   Biso      1.000     O          -0.636329           
         O3        1.0000    0.87730   0.60630   0.42055   Biso      1.000     O          -0.63846  
         O4        1.0000    0.66830   0.33680   0.56214   Biso      1.000     O          -0.536003           
         O5        1.0000    0.15960   0.80720   0.43166   Biso      1.000     O          -0.41205  
         O6        1.0000    0.33170   0.66320   0.43786   Biso      1.000     O          -0.53601  
         O7        1.0000    0.90530   0.46350   0.56838   Biso      1.000     O          -0.645582           
         O8        1.0000    0.39420   0.52920   0.55834   Biso      1.000     O          -0.636366           
         O9        1.0000    0.12270   0.39370   0.57945   Biso      1.000     O          -0.638537           
         O10       1.0000    0.41910   0.44130   0.41138   Biso      1.000     O          -0.628482           
         O11       1.0000    0.58090   0.55870   0.58862   Biso      1.000     O          -0.628476           
         O12       1.0000    0.84040   0.19280   0.56834   Biso      1.000     O          -0.41206800000000005 