
##########################################################################
#               Crystallographic Information Format file
#               Produced by PyCifRW module
#
#  This is a CIF file.  CIF has been adopted by the International
#  Union of Crystallography as the standard for data archiving and
#  transmission.
#
#  For information on this file format, follow the CIF links at
#  http://www.iucr.org
##########################################################################

data_image0

_cell_length_a                          7.4564
_cell_length_b                          9.1845
_cell_length_c                          11.582
_cell_angle_alpha                       100.842
_cell_angle_beta                        104.303
_cell_angle_gamma                       94.774
_symmetry_space_group_name_H-M          'P 1'
_symmetry_int_tables_number             1
loop_
  _symmetry_equiv_pos_as_xyz
         'x, y, z' 
loop_
  _atom_site_label
  _atom_site_occupancy
  _atom_site_fract_x
  _atom_site_fract_y
  _atom_site_fract_z
  _atom_site_thermal_displace_type
  _atom_site_B_iso_or_equiv
  _atom_site_type_symbol
  _atom_site_charge
         C1        1.0000    0.21460   0.86440   0.51400   Biso      1.000     C          0.068631  
         C2        1.0000    0.28310   0.64080   0.01560   Biso      1.000     C          -0.096368           
         C3        1.0000    0.28650   0.53020   0.91590   Biso      1.000     C          -0.125319           
         C4        1.0000    0.24510   0.38050   0.91720   Biso      1.000     C          0.08226   
         C5        1.0000    0.13830   0.89470   0.40110   Biso      1.000     C          -0.120777           
         C6        1.0000    0.15630   0.04040   0.38390   Biso      1.000     C          -0.084517           
         C7        1.0000    0.26310   0.14980   0.48330   Biso      1.000     C          -0.133238           
         C8        1.0000    0.33690   0.11200   0.59490   Biso      1.000     C          0.087192  
         C9        1.0000    0.80790   0.55630   0.89160   Biso      1.000     C          0.084021  
         C10       1.0000    0.76750   0.40630   0.88840   Biso      1.000     C          -0.126782           
         C11       1.0000    0.71690   0.35920   0.98440   Biso      1.000     C          -0.096357           
         C12       1.0000    0.71350   0.46980   0.08410   Biso      1.000     C          -0.125319           
         C13       1.0000    0.75490   0.61950   0.08280   Biso      1.000     C          0.082265  
         C14       1.0000    0.78540   0.13560   0.48600   Biso      1.000     C          0.068631  
         C15       1.0000    0.86170   0.10530   0.59890   Biso      1.000     C          -0.120765           
         C16       1.0000    0.84370   0.95960   0.61610   Biso      1.000     C          -0.084526           
         C17       1.0000    0.73690   0.85020   0.51670   Biso      1.000     C          -0.133231           
         C18       1.0000    0.66310   0.88800   0.40510   Biso      1.000     C          0.087206  
         C19       1.0000    0.23250   0.59370   0.11160   Biso      1.000     C          -0.126793           
         C20       1.0000    0.19210   0.44370   0.10840   Biso      1.000     C          0.084017  
         Cu1       1.0000    0.16072   0.12101   0.01208   Biso      1.000     Cu          0.998441  
         Cu2       1.0000    0.36183   0.91960   0.77591   Biso      1.000     Cu          0.933746  
         Cu3       1.0000    0.83928   0.87899   0.98792   Biso      1.000     Cu          0.998267  
         Cu4       1.0000    0.63817   0.08040   0.22409   Biso      1.000     Cu          0.933929  
         H1        1.0000    0.92550   0.18290   0.66380   Biso      1.000     H          0.128991  
         H2        1.0000    0.80010   0.23400   0.47670   Biso      1.000     H          0.102764  
         H3        1.0000    0.15920   0.41500   0.17410   Biso      1.000     H          0.111971  
         H4        1.0000    0.31650   0.55670   0.84870   Biso      1.000     H          0.136521  
         H5        1.0000    0.24930   0.30780   0.85050   Biso      1.000     H          0.108047  
         H6        1.0000    0.19990   0.76600   0.52330   Biso      1.000     H          0.102757  
         H7        1.0000    0.07450   0.81710   0.33620   Biso      1.000     H          0.128992  
         H8        1.0000    0.22580   0.66430   0.17890   Biso      1.000     H          0.127084  
         H9        1.0000    0.75070   0.69220   0.14950   Biso      1.000     H          0.108055  
         H10       1.0000    0.40750   0.18630   0.66030   Biso      1.000     H          0.106684  
         H11       1.0000    0.84080   0.58500   0.82590   Biso      1.000     H          0.111991  
         H12       1.0000    0.77420   0.33570   0.82110   Biso      1.000     H          0.127094  
         H13       1.0000    0.68350   0.44330   0.15130   Biso      1.000     H          0.136532  
         H14       1.0000    0.28500   0.24800   0.47510   Biso      1.000     H          0.129108  
         H15       1.0000    0.59250   0.81370   0.33970   Biso      1.000     H          0.106685  
         H16       1.0000    0.71500   0.75200   0.52490   Biso      1.000     H          0.129119  
         N1        1.0000    0.69070   0.02860   0.38890   Biso      1.000     N          -0.239204           
         N2        1.0000    0.80100   0.66270   0.98760   Biso      1.000     N          -0.223769           
         N3        1.0000    0.30930   0.97140   0.61110   Biso      1.000     N          -0.239154           
         N4        1.0000    0.19900   0.33730   0.01240   Biso      1.000     N          -0.223823           
         O1        1.0000    0.89920   0.19200   0.27050   Biso      1.000     O          -0.753238           
         O2        1.0000    0.51620   0.10960   0.84850   Biso      1.000     O          -0.755445           
         O3        1.0000    0.82580   0.09260   0.99440   Biso      1.000     O          -0.793093           
         O4        1.0000    0.07280   0.06820   0.83330   Biso      1.000     O          -0.785804           
         O5        1.0000    0.45020   0.84500   0.92450   Biso      1.000     O          -0.793776           
         O6        1.0000    0.81780   0.84670   0.81030   Biso      1.000     O          -0.748973           
         O7        1.0000    0.48380   0.89040   0.15150   Biso      1.000     O          -0.755502           
         O8        1.0000    0.10080   0.80800   0.72950   Biso      1.000     O          -0.753197           
         O9        1.0000    0.17420   0.90740   0.00560   Biso      1.000     O          -0.793126           
         O10       1.0000    0.18220   0.15330   0.18970   Biso      1.000     O          -0.749016           
         O11       1.0000    0.54980   0.15500   0.07550   Biso      1.000     O          -0.793824           
         O12       1.0000    0.92720   0.93180   0.16670   Biso      1.000     O          -0.785787           
         P1        1.0000    0.03370   0.08259   0.24017   Biso      1.000     P          1.263089  
         P2        1.0000    0.64770   0.16278   0.97592   Biso      1.000     P          1.31178   
         P3        1.0000    0.96630   0.91741   0.75983   Biso      1.000     P          1.263057  
         P4        1.0000    0.35230   0.83722   0.02408   Biso      1.000     P          1.311798 