
##########################################################################
#               Crystallographic Information Format file
#               Produced by PyCifRW module
#
#  This is a CIF file.  CIF has been adopted by the International
#  Union of Crystallography as the standard for data archiving and
#  transmission.
#
#  For information on this file format, follow the CIF links at
#  http://www.iucr.org
##########################################################################

data_image0

_cell_length_a                          9.955
_cell_length_b                          12.795
_cell_length_c                          13.801
_cell_angle_alpha                       69.415
_cell_angle_beta                        82.562
_cell_angle_gamma                       83.117
_symmetry_space_group_name_H-M          'P 1'
_symmetry_int_tables_number             1
loop_
  _symmetry_equiv_pos_as_xyz
         'x, y, z' 
loop_
  _atom_site_label
  _atom_site_occupancy
  _atom_site_fract_x
  _atom_site_fract_y
  _atom_site_fract_z
  _atom_site_thermal_displace_type
  _atom_site_B_iso_or_equiv
  _atom_site_type_symbol
  _atom_site_charge
         C1        1.0000    0.60080   0.92360   0.55320   Biso      1.000     C          0.08795700000000001           
         C2        1.0000    0.73990   0.84560   0.04370   Biso      1.000     C          -0.522945           
         C3        1.0000    0.61390   0.92600   0.02080   Biso      1.000     C          0.090998  
         C4        1.0000    0.26490   0.96870   0.14950   Biso      1.000     C          -0.51252  
         C5        1.0000    0.38700   0.98610   0.07360   Biso      1.000     C          0.10452   
         C6        1.0000    0.50180   0.91310   0.09200   Biso      1.000     C          -0.14562999999999998          
         C7        1.0000    0.50520   0.81750   0.19370   Biso      1.000     C          0.646163  
         C8        1.0000    0.52560   0.23580   0.44370   Biso      1.000     C          0.685025  
         C9        1.0000    0.09690   0.61420   0.62220   Biso      1.000     C          -0.512677           
         C10       1.0000    0.17930   0.46140   0.33070   Biso      1.000     C          -0.51499  
         C11       1.0000    0.08510   0.48010   0.41830   Biso      1.000     C          0.09954199999999999           
         C12       1.0000    0.12840   0.53430   0.47810   Biso      1.000     C          -0.186576           
         C13       1.0000    0.26830   0.57300   0.45150   Biso      1.000     C          0.688319  
         C14       1.0000    0.70710   0.84110   0.61150   Biso      1.000     C          -0.511243           
         C15       1.0000    0.27090   0.92020   0.44770   Biso      1.000     C          -0.504714           
         C16       1.0000    0.04560   0.55560   0.55960   Biso      1.000     C          0.089773  
         C17       1.0000    0.38750   0.96250   0.47360   Biso      1.000     C          0.103473  
         C18       1.0000    0.51140   0.11190   0.47350   Biso      1.000     C          -0.173288           
         C19       1.0000    0.72910   0.07980   0.55230   Biso      1.000     C          -0.504714           
         C20       1.0000    0.26010   0.15440   0.95630   Biso      1.000     C          -0.522945           
         C21       1.0000    0.38610   0.07400   0.97920   Biso      1.000     C          0.09099700000000001           
         C22       1.0000    0.73510   0.03130   0.85050   Biso      1.000     C          -0.51252  
         C23       1.0000    0.61300   0.01390   0.92640   Biso      1.000     C          0.10452   
         C24       1.0000    0.49820   0.08690   0.90800   Biso      1.000     C          -0.14562999999999998          
         C25       1.0000    0.49480   0.18250   0.80630   Biso      1.000     C          0.646163  
         C26       1.0000    0.61250   0.03750   0.52640   Biso      1.000     C          0.103473  
         C27       1.0000    0.90310   0.38580   0.37780   Biso      1.000     C          -0.512677           
         C28       1.0000    0.82070   0.53860   0.66930   Biso      1.000     C          -0.51499  
         C29       1.0000    0.91490   0.51990   0.58170   Biso      1.000     C          0.09954299999999999           
         C30       1.0000    0.87160   0.46570   0.52190   Biso      1.000     C          -0.186576           
         C31       1.0000    0.73170   0.42700   0.54850   Biso      1.000     C          0.688319  
         C32       1.0000    0.29290   0.15890   0.38850   Biso      1.000     C          -0.511243           
         C33       1.0000    0.39920   0.07640   0.44680   Biso      1.000     C          0.08795800000000001           
         C34       1.0000    0.95440   0.44440   0.44040   Biso      1.000     C          0.089774  
         C35       1.0000    0.48860   0.88810   0.52650   Biso      1.000     C          -0.173288           
         C36       1.0000    0.47440   0.76420   0.55630   Biso      1.000     C          0.685025  
         H1        1.0000    0.21950   0.16580   0.01910   Biso      1.000     H          0.167929  
         H2        1.0000    0.71520   0.77530   0.09410   Biso      1.000     H          0.163411  
         H3        1.0000    0.18610   0.97350   0.11420   Biso      1.000     H          0.16387100000000002           
         H4        1.0000    0.25420   0.02530   0.18130   Biso      1.000     H          0.168324  
         H5        1.0000    0.27510   0.89610   0.20200   Biso      1.000     H          0.168796  
         H6        1.0000    0.11460   0.56130   0.68940   Biso      1.000     H          0.168486  
         H7        1.0000    0.02980   0.67180   0.63030   Biso      1.000     H          0.176822  
         H8        1.0000    0.17930   0.64720   0.58720   Biso      1.000     H          0.169991  
         H9        1.0000    0.28480   0.22470   0.90590   Biso      1.000     H          0.163412  
         H10       1.0000    0.18370   0.53040   0.27300   Biso      1.000     H          0.178891  
         H11       1.0000    0.26830   0.43590   0.35340   Biso      1.000     H          0.168682  
         H12       1.0000    0.70520   0.84580   0.67960   Biso      1.000     H          0.164202  
         H13       1.0000    0.79490   0.85780   0.57470   Biso      1.000     H          0.15717   
         H14       1.0000    0.68930   0.76690   0.61760   Biso      1.000     H          0.158245  
         H15       1.0000    0.28550   0.84050   0.46500   Biso      1.000     H          0.154446  
         H16       1.0000    0.26140   0.95450   0.37460   Biso      1.000     H          0.160625  
         H17       1.0000    0.18970   0.93800   0.48650   Biso      1.000     H          0.159622  
         H18       1.0000    0.14590   0.40600   0.30980   Biso      1.000     H          0.171076  
         H19       1.0000    0.80360   0.87640   0.07080   Biso      1.000     H          0.16456300000000001           
         H20       1.0000    0.78050   0.83420   0.98090   Biso      1.000     H          0.167928  
         H21       1.0000    0.73860   0.04550   0.62540   Biso      1.000     H          0.160625  
         H22       1.0000    0.19640   0.12360   0.92920   Biso      1.000     H          0.16456300000000001           
         H23       1.0000    0.81390   0.02650   0.88580   Biso      1.000     H          0.16387100000000002           
         H24       1.0000    0.74580   0.97470   0.81870   Biso      1.000     H          0.168324  
         H25       1.0000    0.72490   0.10390   0.79800   Biso      1.000     H          0.168796  
         H26       1.0000    0.81030   0.06200   0.51350   Biso      1.000     H          0.159622  
         H27       1.0000    0.97020   0.32820   0.36970   Biso      1.000     H          0.176822  
         H28       1.0000    0.82070   0.35280   0.41280   Biso      1.000     H          0.169991  
         H29       1.0000    0.88540   0.43870   0.31060   Biso      1.000     H          0.168486  
         H30       1.0000    0.85410   0.59400   0.69020   Biso      1.000     H          0.171076  
         H31       1.0000    0.73170   0.56410   0.64660   Biso      1.000     H          0.168682  
         H32       1.0000    0.29480   0.15420   0.32040   Biso      1.000     H          0.164202  
         H33       1.0000    0.20510   0.14220   0.42530   Biso      1.000     H          0.15717   
         H34       1.0000    0.31070   0.23310   0.38240   Biso      1.000     H          0.158245  
         H35       1.0000    0.71450   0.15950   0.53500   Biso      1.000     H          0.154446  
         H36       1.0000    0.81630   0.46960   0.72700   Biso      1.000     H          0.178891  
         O1        1.0000    0.71030   0.33590   0.61750   Biso      1.000     O          -0.575421           
         O2        1.0000    0.50570   0.71940   0.19640   Biso      1.000     O          -0.700808           
         O3        1.0000    0.63320   0.48690   0.50330   Biso      1.000     O          -0.808442           
         O4        1.0000    0.58930   0.28440   0.36130   Biso      1.000     O          -0.56799  
         O5        1.0000    0.47150   0.28490   0.50560   Biso      1.000     O          -0.784985           
         O6        1.0000    0.50790   0.83640   0.27650   Biso      1.000     O          -0.633177           
         O7        1.0000    0.49430   0.28060   0.80360   Biso      1.000     O          -0.700808           
         O8        1.0000    0.28970   0.66410   0.38250   Biso      1.000     O          -0.575421           
         O9        1.0000    0.41070   0.71560   0.63870   Biso      1.000     O          -0.56799  
         O10       1.0000    0.52850   0.71510   0.49440   Biso      1.000     O          -0.784985           
         O11       1.0000    0.49210   0.16360   0.72350   Biso      1.000     O          -0.633177           
         O12       1.0000    0.36680   0.51310   0.49670   Biso      1.000     O          -0.808442           
         Tm1       1.0000    0.46981   0.35965   0.62519   Biso      1.000     Tm          2.074482  
         Tm2       1.0000    0.53019   0.64035   0.37481   Biso      1.000     Tm          2.074482 