
##########################################################################
#               Crystallographic Information Format file
#               Produced by PyCifRW module
#
#  This is a CIF file.  CIF has been adopted by the International
#  Union of Crystallography as the standard for data archiving and
#  transmission.
#
#  For information on this file format, follow the CIF links at
#  http://www.iucr.org
##########################################################################

data_image0

_cell_length_a                          10.9709
_cell_length_b                          10.9709
_cell_length_c                          18.842
_cell_angle_alpha                       73.3696
_cell_angle_beta                        73.3696
_cell_angle_gamma                       74.308
_symmetry_space_group_name_H-M          'P 1'
_symmetry_int_tables_number             1
loop_
  _symmetry_equiv_pos_as_xyz
         'x, y, z' 
loop_
  _atom_site_label
  _atom_site_occupancy
  _atom_site_fract_x
  _atom_site_fract_y
  _atom_site_fract_z
  _atom_site_thermal_displace_type
  _atom_site_B_iso_or_equiv
  _atom_site_type_symbol
  _atom_site_charge
         C1        1.0000    0.50670   0.12370   0.00240   Biso      1.000     C          -0.026382999999999997         
         C2        1.0000    0.45640   0.88260   0.39250   Biso      1.000     C          -0.051572           
         C3        1.0000    0.43060   0.97800   0.43500   Biso      1.000     C          -0.094873           
         C4        1.0000    0.43030   0.10230   0.40410   Biso      1.000     C          -0.107923           
         C5        1.0000    0.45280   0.14840   0.32890   Biso      1.000     C          -0.024768000000000002         
         C6        1.0000    0.46460   0.29400   0.29030   Biso      1.000     C          0.703676  
         C7        1.0000    0.46790   0.10790   0.94430   Biso      1.000     C          -0.10529200000000001          
         C8        1.0000    0.54430   0.01830   0.05730   Biso      1.000     C          -0.120648           
         C9        1.0000    0.50810   0.25910   0.00550   Biso      1.000     C          0.7133149999999999  
         C10       1.0000    0.06740   0.48740   0.78060   Biso      1.000     C          -0.133106           
         C11       1.0000    0.93000   0.48920   0.81040   Biso      1.000     C          -0.09081499999999999          
         C12       1.0000    0.74250   0.47270   0.92800   Biso      1.000     C          0.708897  
         C13       1.0000    0.88260   0.45640   0.89250   Biso      1.000     C          -0.051572           
         C14       1.0000    0.97800   0.43060   0.93500   Biso      1.000     C          -0.094876           
         C15       1.0000    0.14840   0.45280   0.82890   Biso      1.000     C          -0.024784999999999998         
         C16       1.0000    0.29400   0.46460   0.79030   Biso      1.000     C          0.703678  
         C17       1.0000    0.47270   0.74250   0.42800   Biso      1.000     C          0.7088979999999999  
         C18       1.0000    0.89210   0.53210   0.55570   Biso      1.000     C          -0.105315           
         C19       1.0000    0.48920   0.93000   0.31040   Biso      1.000     C          -0.090816           
         C20       1.0000    0.25910   0.50810   0.50550   Biso      1.000     C          0.713314  
         C21       1.0000    0.53210   0.89210   0.05570   Biso      1.000     C          -0.105316           
         C22       1.0000    0.45570   0.98170   0.94270   Biso      1.000     C          -0.12065799999999999          
         C23       1.0000    0.49330   0.87630   0.99760   Biso      1.000     C          -0.026355           
         C24       1.0000    0.49190   0.74090   0.99450   Biso      1.000     C          0.713312  
         C25       1.0000    0.93260   0.51260   0.21940   Biso      1.000     C          -0.133108           
         C26       1.0000    0.07000   0.51080   0.18960   Biso      1.000     C          -0.09081499999999999          
         C27       1.0000    0.25750   0.52730   0.07200   Biso      1.000     C          0.7088979999999999  
         C28       1.0000    0.11740   0.54360   0.10750   Biso      1.000     C          -0.051572           
         C29       1.0000    0.02200   0.56940   0.06500   Biso      1.000     C          -0.094873           
         C30       1.0000    0.89770   0.56970   0.09590   Biso      1.000     C          -0.107923           
         C31       1.0000    0.85160   0.54720   0.17110   Biso      1.000     C          -0.024766           
         C32       1.0000    0.70600   0.53540   0.20970   Biso      1.000     C          0.703676  
         C33       1.0000    0.10790   0.46790   0.44430   Biso      1.000     C          -0.105315           
         C34       1.0000    0.01830   0.54430   0.55730   Biso      1.000     C          -0.120655           
         C35       1.0000    0.12370   0.50670   0.50240   Biso      1.000     C          -0.026355           
         C36       1.0000    0.48740   0.06740   0.28060   Biso      1.000     C          -0.133107           
         C37       1.0000    0.98170   0.45570   0.44270   Biso      1.000     C          -0.120655           
         C38       1.0000    0.10230   0.43030   0.90410   Biso      1.000     C          -0.107904           
         C39       1.0000    0.74090   0.49190   0.49450   Biso      1.000     C          0.713314  
         C40       1.0000    0.51260   0.93260   0.71940   Biso      1.000     C          -0.133108           
         C41       1.0000    0.51080   0.07000   0.68960   Biso      1.000     C          -0.09081499999999999          
         C42       1.0000    0.52730   0.25750   0.57200   Biso      1.000     C          0.7088979999999999  
         C43       1.0000    0.54360   0.11740   0.60750   Biso      1.000     C          -0.051572           
         C44       1.0000    0.56940   0.02200   0.56500   Biso      1.000     C          -0.094873           
         C45       1.0000    0.56970   0.89770   0.59590   Biso      1.000     C          -0.107923           
         C46       1.0000    0.54720   0.85160   0.67110   Biso      1.000     C          -0.024766           
         C47       1.0000    0.53540   0.70600   0.70970   Biso      1.000     C          0.703676  
         C48       1.0000    0.87630   0.49330   0.49760   Biso      1.000     C          -0.026355           
         H1        1.0000    0.57800   0.02800   0.09490   Biso      1.000     H          0.116943  
         H2        1.0000    0.10020   0.51000   0.72840   Biso      1.000     H          0.11506199999999998           
         H3        1.0000    0.87370   0.51070   0.77800   Biso      1.000     H          0.127317  
         H4        1.0000    0.95170   0.41230   0.98770   Biso      1.000     H          0.10566800000000001           
         H5        1.0000    0.15860   0.41520   0.93550   Biso      1.000     H          0.114227  
         H6        1.0000    0.58770   0.04830   0.51230   Biso      1.000     H          0.10566800000000001           
         H7        1.0000    0.97200   0.42200   0.40510   Biso      1.000     H          0.116943  
         H8        1.0000    0.49000   0.89980   0.77160   Biso      1.000     H          0.11506199999999998           
         H9        1.0000    0.48930   0.12630   0.72200   Biso      1.000     H          0.127317  
         H10       1.0000    0.58480   0.84140   0.56450   Biso      1.000     H          0.114228  
         H11       1.0000    0.82160   0.54980   0.59500   Biso      1.000     H          0.123879  
         H12       1.0000    0.41520   0.15860   0.43550   Biso      1.000     H          0.114228  
         H13       1.0000    0.45020   0.17840   0.90500   Biso      1.000     H          0.123877  
         H14       1.0000    0.51070   0.87370   0.27800   Biso      1.000     H          0.127317  
         H15       1.0000    0.51000   0.10020   0.22840   Biso      1.000     H          0.11506199999999998           
         H16       1.0000    0.02800   0.57800   0.59490   Biso      1.000     H          0.116943  
         H17       1.0000    0.17840   0.45020   0.40500   Biso      1.000     H          0.123879  
         H18       1.0000    0.84140   0.58480   0.06450   Biso      1.000     H          0.114228  
         H19       1.0000    0.04830   0.58770   0.01230   Biso      1.000     H          0.10566700000000001           
         H20       1.0000    0.12630   0.48930   0.22200   Biso      1.000     H          0.127317  
         H21       1.0000    0.89980   0.49000   0.27160   Biso      1.000     H          0.11506199999999998           
         H22       1.0000    0.42200   0.97200   0.90510   Biso      1.000     H          0.116943  
         H23       1.0000    0.54980   0.82160   0.09500   Biso      1.000     H          0.123879  
         H24       1.0000    0.41230   0.95170   0.48770   Biso      1.000     H          0.10566800000000001           
         O1        1.0000    0.52560   0.27700   0.06120   Biso      1.000     O          -0.707242           
         O2        1.0000    0.46950   0.35110   0.33690   Biso      1.000     O          -0.728897           
         O3        1.0000    0.46810   0.33090   0.22430   Biso      1.000     O          -0.66147  
         O4        1.0000    0.45180   0.70480   0.49680   Biso      1.000     O          -0.735164           
         O5        1.0000    0.50770   0.66730   0.38280   Biso      1.000     O          -0.680225           
         O6        1.0000    0.49180   0.34060   0.94650   Biso      1.000     O          -0.6937399999999999           
         O7        1.0000    0.27700   0.52560   0.56120   Biso      1.000     O          -0.707242           
         O8        1.0000    0.33270   0.49230   0.11720   Biso      1.000     O          -0.680225           
         O9        1.0000    0.29520   0.54820   0.00320   Biso      1.000     O          -0.735164           
         O10       1.0000    0.66910   0.53190   0.27570   Biso      1.000     O          -0.66147  
         O11       1.0000    0.64890   0.53050   0.16310   Biso      1.000     O          -0.728897           
         O12       1.0000    0.34060   0.49180   0.44650   Biso      1.000     O          -0.693745           
         O13       1.0000    0.66730   0.50770   0.88280   Biso      1.000     O          -0.680225           
         O14       1.0000    0.47440   0.72300   0.93880   Biso      1.000     O          -0.707242           
         O15       1.0000    0.33090   0.46810   0.72430   Biso      1.000     O          -0.66147  
         O16       1.0000    0.35110   0.46950   0.83690   Biso      1.000     O          -0.728897           
         O17       1.0000    0.72300   0.47440   0.43880   Biso      1.000     O          -0.707242           
         O18       1.0000    0.65940   0.50820   0.55350   Biso      1.000     O          -0.693745           
         O19       1.0000    0.49230   0.33270   0.61720   Biso      1.000     O          -0.680225           
         O20       1.0000    0.54820   0.29520   0.50320   Biso      1.000     O          -0.735164           
         O21       1.0000    0.53190   0.66910   0.77570   Biso      1.000     O          -0.66147  
         O22       1.0000    0.53050   0.64890   0.66310   Biso      1.000     O          -0.728897           
         O23       1.0000    0.50820   0.65940   0.05350   Biso      1.000     O          -0.6937399999999999           
         O24       1.0000    0.70480   0.45180   0.99680   Biso      1.000     O          -0.735164           
         Tm1       1.0000    0.55497   0.43845   0.10537   Biso      1.000     Tm          2.133139  
         Tm2       1.0000    0.56155   0.44503   0.39463   Biso      1.000     Tm          2.133143  
         Tm3       1.0000    0.44503   0.56155   0.89463   Biso      1.000     Tm          2.133139  
         Tm4       1.0000    0.43845   0.55497   0.60537   Biso      1.000     Tm          2.133142 