
##########################################################################
#               Crystallographic Information Format file
#               Produced by PyCifRW module
#
#  This is a CIF file.  CIF has been adopted by the International
#  Union of Crystallography as the standard for data archiving and
#  transmission.
#
#  For information on this file format, follow the CIF links at
#  http://www.iucr.org
##########################################################################

data_image0

_cell_length_a                          9.0264
_cell_length_b                          15.103
_cell_length_c                          15.5353
_cell_angle_alpha                       119.084
_cell_angle_beta                        104.844
_cell_angle_gamma                       90
_symmetry_space_group_name_H-M          'P 1'
_symmetry_int_tables_number             1
loop_
  _symmetry_equiv_pos_as_xyz
         'x, y, z' 
loop_
  _atom_site_label
  _atom_site_occupancy
  _atom_site_fract_x
  _atom_site_fract_y
  _atom_site_fract_z
  _atom_site_thermal_displace_type
  _atom_site_B_iso_or_equiv
  _atom_site_type_symbol
  _atom_site_charge
         C1        1.0000    0.81550   0.32999   0.28658   Biso      1.000     C          0.159255  
         C2        1.0000    0.05400   0.77311   0.79362   Biso      1.000     C          0.184119  
         C3        1.0000    0.04370   0.71190   0.68900   Biso      1.000     C          -0.187611           
         C4        1.0000    0.96430   0.61650   0.63300   Biso      1.000     C          -0.157502           
         C5        1.0000    0.89280   0.57390   0.67580   Biso      1.000     C          0.16018   
         C6        1.0000    0.89430   0.63514   0.77668   Biso      1.000     C          -0.175249           
         C7        1.0000    0.97200   0.73337   0.83394   Biso      1.000     C          -0.185862           
         C8        1.0000    0.02800   0.89943   0.16606   Biso      1.000     C          -0.184808           
         C9        1.0000    0.10570   0.85846   0.22332   Biso      1.000     C          -0.17587  
         C10       1.0000    0.10720   0.89810   0.32420   Biso      1.000     C          0.159457  
         C11       1.0000    0.03570   0.98350   0.36700   Biso      1.000     C          -0.15808599999999998          
         C12       1.0000    0.95630   0.02290   0.31100   Biso      1.000     C          -0.186101           
         C13       1.0000    0.94600   0.97949   0.20638   Biso      1.000     C          0.18212   
         C14       1.0000    0.97730   0.19720   0.24600   Biso      1.000     C          -0.17779  
         C15       1.0000    0.96190   0.30050   0.29200   Biso      1.000     C          -0.1748   
         C16       1.0000    0.39710   0.10571   0.35062   Biso      1.000     C          0.058222  
         C17       1.0000    0.02270   0.95120   0.75400   Biso      1.000     C          -0.179112           
         C18       1.0000    0.68440   0.25600   0.23500   Biso      1.000     C          -0.181095           
         C19       1.0000    0.03810   0.00850   0.70800   Biso      1.000     C          -0.17434000000000002          
         C20       1.0000    0.31560   0.02100   0.76500   Biso      1.000     C          -0.18136  
         C21       1.0000    0.55130   0.99280   0.31880   Biso      1.000     C          -0.14368499999999998          
         C22       1.0000    0.57360   0.05140   0.42020   Biso      1.000     C          -0.028100999999999998         
         C23       1.0000    0.85260   0.38930   0.54000   Biso      1.000     C          -0.13209300000000002          
         C24       1.0000    0.69380   0.43670   0.63140   Biso      1.000     C          0.08073   
         C25       1.0000    0.32270   0.11930   0.64220   Biso      1.000     C          0.087633  
         C26       1.0000    0.09550   0.16420   0.65320   Biso      1.000     C          -0.129244           
         C27       1.0000    0.16480   0.21280   0.61500   Biso      1.000     C          -0.05549  
         C28       1.0000    0.36860   0.98775   0.16550   Biso      1.000     C          0.154916  
         C29       1.0000    0.30160   0.05478   0.13196   Biso      1.000     C          -0.18975799999999998          
         C30       1.0000    0.22570   0.01385   0.02750   Biso      1.000     C          -0.16969700000000001          
         C31       1.0000    0.21780   0.91174   0.95808   Biso      1.000     C          0.187887  
         C32       1.0000    0.29170   0.84843   0.99206   Biso      1.000     C          -0.183774           
         C33       1.0000    0.36330   0.88794   0.09688   Biso      1.000     C          -0.17365899999999998          
         C34       1.0000    0.15380   0.92889   0.80558   Biso      1.000     C          0.179239  
         C35       1.0000    0.30020   0.96370   0.81100   Biso      1.000     C          -0.17013599999999998          
         C36       1.0000    0.18450   0.04341   0.71342   Biso      1.000     C          0.15901400000000002           
         C37       1.0000    0.69980   0.15270   0.18900   Biso      1.000     C          -0.170503           
         C38       1.0000    0.75470   0.30870   0.51220   Biso      1.000     C          -0.037589           
         C39       1.0000    0.63670   0.79106   0.90312   Biso      1.000     C          -0.173309           
         C40       1.0000    0.75760   0.32460   0.93280   Biso      1.000     C          -0.140706           
         C41       1.0000    0.64500   0.23810   0.91440   Biso      1.000     C          -0.19747699999999999          
         C42       1.0000    0.84620   0.12331   0.19442   Biso      1.000     C          0.17716600000000002           
         C43       1.0000    0.42640   0.63120   0.57980   Biso      1.000     C          -0.029235           
         C44       1.0000    0.44870   0.67400   0.68120   Biso      1.000     C          -0.14525  
         C45       1.0000    0.58070   0.28950   0.01580   Biso      1.000     C          -0.183777           
         C46       1.0000    0.60290   0.75509   0.64938   Biso      1.000     C          0.061211  
         C47       1.0000    0.24530   0.79650   0.48780   Biso      1.000     C          -0.03882  
         C48       1.0000    0.30380   0.52060   0.25680   Biso      1.000     C          0.6619010000000001  
         C49       1.0000    0.20000   0.45220   0.16240   Biso      1.000     C          -0.357028           
         C50       1.0000    0.24240   0.39180   0.06720   Biso      1.000     C          -0.143398           
         C51       1.0000    0.35500   0.32370   0.08560   Biso      1.000     C          -0.196786           
         C52       1.0000    0.41930   0.27370   0.98420   Biso      1.000     C          -0.184365           
         C53       1.0000    0.14740   0.84930   0.46000   Biso      1.000     C          -0.131219           
         C54       1.0000    0.30620   0.80530   0.36860   Biso      1.000     C          0.082584  
         C55       1.0000    0.67730   0.47710   0.35780   Biso      1.000     C          0.086319  
         C56       1.0000    0.90450   0.51100   0.34680   Biso      1.000     C          -0.130226           
         C57       1.0000    0.83520   0.59780   0.38500   Biso      1.000     C          -0.057492999999999995         
         C58       1.0000    0.63140   0.82225   0.83450   Biso      1.000     C          0.154134  
         C59       1.0000    0.69840   0.92282   0.86804   Biso      1.000     C          -0.19000699999999998          
         C60       1.0000    0.77430   0.98635   0.97250   Biso      1.000     C          -0.169245           
         C61       1.0000    0.78220   0.95366   0.04192   Biso      1.000     C          0.18654400000000002           
         C62       1.0000    0.70830   0.85637   0.00794   Biso      1.000     C          -0.184054           
         C63       1.0000    0.80000   0.28980   0.83760   Biso      1.000     C          -0.35945900000000003          
         C64       1.0000    0.69620   0.26380   0.74320   Biso      1.000     C          0.663547  
         Co1       1.0000    0.51539   0.66716   0.41800   Biso      1.000     Co          0.396227  
         Co2       1.0000    0.48461   0.24916   0.58200   Biso      1.000     Co          0.395642  
         H1        1.0000    0.29080   0.43640   0.05040   Biso      1.000     H          0.100111  
         H2        1.0000    0.56070   0.21500   0.85160   Biso      1.000     H          0.10245399999999999           
         H3        1.0000    0.70920   0.38600   0.94960   Biso      1.000     H          0.098695  
         H4        1.0000    0.84900   0.34000   0.98960   Biso      1.000     H          0.09919299999999999           
         H5        1.0000    0.87810   0.34400   0.85220   Biso      1.000     H          0.125301  
         H6        1.0000    0.85250   0.23120   0.82700   Biso      1.000     H          0.105447  
         H7        1.0000    0.15100   0.35040   0.01040   Biso      1.000     H          0.099487  
         H8        1.0000    0.61860   0.36240   0.05700   Biso      1.000     H          0.101947  
         H9        1.0000    0.14750   0.40420   0.17300   Biso      1.000     H          0.10495399999999999           
         H10       1.0000    0.12190   0.49180   0.14780   Biso      1.000     H          0.12493699999999999           
         H11       1.0000    0.38140   0.20090   0.94220   Biso      1.000     H          0.085861  
         H12       1.0000    0.38140   0.30540   0.94300   Biso      1.000     H          0.102325  
         H13       1.0000    0.30300   0.27070   0.09020   Biso      1.000     H          0.09257   
         H14       1.0000    0.43930   0.36340   0.14840   Biso      1.000     H          0.101514  
         H15       1.0000    0.61860   0.25870   0.05780   Biso      1.000     H          0.08629500000000001           
         H16       1.0000    0.69700   0.18050   0.90980   Biso      1.000     H          0.09197899999999999           
         H17       1.0000    0.38800   0.94870   0.84540   Biso      1.000     H          0.120333  
         H18       1.0000    0.84210   0.60970   0.80640   Biso      1.000     H          0.124599  
         H19       1.0000    0.24520   0.78180   0.53940   Biso      1.000     H          0.112148  
         H20       1.0000    0.06800   0.87780   0.48800   Biso      1.000     H          0.12028   
         H21       1.0000    0.35690   0.79900   0.32120   Biso      1.000     H          0.093195  
         H22       1.0000    0.59030   0.44060   0.35360   Biso      1.000     H          0.10025   
         H23       1.0000    0.00090   0.50550   0.33500   Biso      1.000     H          0.13613   
         H24       1.0000    0.87900   0.66280   0.40400   Biso      1.000     H          0.106252  
         H25       1.0000    0.69180   0.94570   0.82160   Biso      1.000     H          0.12419100000000001           
         H26       1.0000    0.96940   0.77400   0.90140   Biso      1.000     H          0.1165    
         H27       1.0000    0.82050   0.05200   0.99560   Biso      1.000     H          0.125864  
         H28       1.0000    0.70680   0.83540   0.05500   Biso      1.000     H          0.12673099999999998           
         H29       1.0000    0.59200   0.72500   0.88000   Biso      1.000     H          0.12653   
         H30       1.0000    0.61200   0.10330   0.15460   Biso      1.000     H          0.12057899999999999           
         H31       1.0000    0.03060   0.87260   0.09860   Biso      1.000     H          0.11606500000000002           
         H32       1.0000    0.15790   0.80330   0.19360   Biso      1.000     H          0.125005  
         H33       1.0000    0.04270   0.01480   0.43660   Biso      1.000     H          0.113856  
         H34       1.0000    0.90760   0.07950   0.34200   Biso      1.000     H          0.11678   
         H35       1.0000    0.07530   0.17750   0.24960   Biso      1.000     H          0.11924100000000001           
         H36       1.0000    0.68140   0.80200   0.65940   Biso      1.000     H          0.08305   
         H37       1.0000    0.04960   0.34990   0.32640   Biso      1.000     H          0.129149  
         H38       1.0000    0.39610   0.65280   0.71380   Biso      1.000     H          0.128883  
         H39       1.0000    0.60390   0.93900   0.28620   Biso      1.000     H          0.128032  
         H40       1.0000    0.95730   0.57820   0.56340   Biso      1.000     H          0.113196  
         H41       1.0000    0.09240   0.73750   0.65800   Biso      1.000     H          0.11741300000000002           
         H42       1.0000    0.92470   0.92790   0.75040   Biso      1.000     H          0.119598  
         H43       1.0000    0.95040   0.02350   0.67360   Biso      1.000     H          0.129304  
         H44       1.0000    0.41360   0.04430   0.76860   Biso      1.000     H          0.12214000000000001           
         H45       1.0000    0.35550   0.57310   0.52980   Biso      1.000     H          0.11830999999999998           
         H46       1.0000    0.40800   0.84500   0.12000   Biso      1.000     H          0.126418  
         H47       1.0000    0.29320   0.78040   0.94500   Biso      1.000     H          0.126605  
         H48       1.0000    0.17950   0.05640   0.00440   Biso      1.000     H          0.125796  
         H49       1.0000    0.30820   0.12410   0.17840   Biso      1.000     H          0.12377300000000001           
         H50       1.0000    0.12100   0.25880   0.59600   Biso      1.000     H          0.104834  
         H51       1.0000    0.99910   0.17050   0.66500   Biso      1.000     H          0.135598  
         H52       1.0000    0.40970   0.08700   0.64640   Biso      1.000     H          0.100095  
         H53       1.0000    0.64310   0.47780   0.67880   Biso      1.000     H          0.093606  
         H54       1.0000    0.93200   0.38980   0.51200   Biso      1.000     H          0.12056300000000002           
         H55       1.0000    0.75480   0.24240   0.46060   Biso      1.000     H          0.11134000000000001           
         H56       1.0000    0.31860   0.14260   0.34060   Biso      1.000     H          0.084229  
         H57       1.0000    0.64450   0.04330   0.47020   Biso      1.000     H          0.11760999999999999           
         H58       1.0000    0.58640   0.27570   0.23140   Biso      1.000     H          0.1221    
         N1        1.0000    0.69360   0.57520   0.39120   Biso      1.000     N          -0.24134299999999997          
         N2        1.0000    0.56380   0.75490   0.72720   Biso      1.000     N          0.014336000000000002          
         N3        1.0000    0.86190   0.01931   0.14702   Biso      1.000     N          -0.178636           
         N4        1.0000    0.79960   0.43452   0.32984   Biso      1.000     N          0.017051  
         N5        1.0000    0.47900   0.12454   0.44088   Biso      1.000     N          -0.23624499999999998          
         N6        1.0000    0.52100   0.68366   0.55912   Biso      1.000     N          -0.23687399999999997          
         N7        1.0000    0.65280   0.33605   0.56970   Biso      1.000     N          -0.252708           
         N8        1.0000    0.43620   0.02770   0.27280   Biso      1.000     N          0.014235  
         N9        1.0000    0.30640   0.18400   0.60880   Biso      1.000     N          -0.24235500000000001          
         N10       1.0000    0.20040   0.10468   0.67016   Biso      1.000     N          0.015709  
         N11       1.0000    0.13810   0.87229   0.85298   Biso      1.000     N          -0.18166600000000002          
         N12       1.0000    0.18440   0.85424   0.38248   Biso      1.000     N          0.028655  
         N13       1.0000    0.34720   0.76635   0.43030   Biso      1.000     N          -0.254015           
         N14       1.0000    0.81560   0.47176   0.61752   Biso      1.000     N          0.028551999999999998          
         O1        1.0000    0.39380   0.58494   0.25788   Biso      1.000     O          -0.592388           
         O2        1.0000    0.60620   0.32706   0.74212   Biso      1.000     O          -0.5922430000000001           
         O3        1.0000    0.68180   0.18019   0.66338   Biso      1.000     O          -0.601427           
         O4        1.0000    0.31820   0.51681   0.33662   Biso      1.000     O          -0.600758 