
##########################################################################
#               Crystallographic Information Format file
#               Produced by PyCifRW module
#
#  This is a CIF file.  CIF has been adopted by the International
#  Union of Crystallography as the standard for data archiving and
#  transmission.
#
#  For information on this file format, follow the CIF links at
#  http://www.iucr.org
##########################################################################

data_image0

_cell_length_a                          8.0954
_cell_length_b                          21.259
_cell_length_c                          22.8149
_cell_angle_alpha                       82.52
_cell_angle_beta                        82.394
_cell_angle_gamma                       79.972
_symmetry_space_group_name_H-M          'P 1'
_symmetry_int_tables_number             1
loop_
  _symmetry_equiv_pos_as_xyz
         'x, y, z' 
loop_
  _atom_site_label
  _atom_site_occupancy
  _atom_site_fract_x
  _atom_site_fract_y
  _atom_site_fract_z
  _atom_site_thermal_displace_type
  _atom_site_B_iso_or_equiv
  _atom_site_type_symbol
  _atom_site_charge
         C1        1.0000    0.80140   0.82037   0.53649   Biso      1.000     C          -0.301695           
         C2        1.0000    0.82360   0.21098   0.29332   Biso      1.000     C          -0.089327           
         C3        1.0000    0.79010   0.14982   0.31553   Biso      1.000     C          -0.124339           
         C4        1.0000    0.14520   0.17311   0.15982   Biso      1.000     C          0.703163  
         C5        1.0000    0.93010   0.28994   0.21300   Biso      1.000     C          0.632462  
         C6        1.0000    0.67100   0.02264   0.34703   Biso      1.000     C          0.691219  
         C7        1.0000    0.98210   0.98676   0.32643   Biso      1.000     C          0.691876  
         C8        1.0000    0.92850   0.22195   0.24101   Biso      1.000     C          -0.019208           
         C9        1.0000    0.56620   0.23111   0.75602   Biso      1.000     C          -0.298589           
         C10       1.0000    0.45090   0.34069   0.70895   Biso      1.000     C          -0.169977           
         C11       1.0000    0.40760   0.38562   0.66123   Biso      1.000     C          -0.009964           
         C12       1.0000    0.41560   0.36442   0.60504   Biso      1.000     C          -0.035224           
         C13       1.0000    0.46660   0.29990   0.59883   Biso      1.000     C          -0.074619           
         C14       1.0000    0.51680   0.25682   0.64544   Biso      1.000     C          -0.138821           
         C15       1.0000    0.34600   0.45392   0.67362   Biso      1.000     C          0.655946  
         C16       1.0000    0.50880   0.27616   0.70204   Biso      1.000     C          0.105655  
         C17       1.0000    0.01300   0.16835   0.21258   Biso      1.000     C          -0.054029           
         C18       1.0000    0.97830   0.10778   0.23445   Biso      1.000     C          -0.16627  
         C19       1.0000    0.86440   0.09714   0.28499   Biso      1.000     C          0.095259  
         C20       1.0000    0.98400   0.30329   0.57036   Biso      1.000     C          -0.080191           
         C21       1.0000    0.07830   0.24705   0.55103   Biso      1.000     C          -0.144178           
         C22       1.0000    0.78170   0.37841   0.43079   Biso      1.000     C          0.688187  
         C23       1.0000    0.81950   0.41271   0.54991   Biso      1.000     C          0.575646  
         C24       1.0000    0.34960   0.15049   0.49878   Biso      1.000     C          0.689533  
         C25       1.0000    0.09160   0.12664   0.46294   Biso      1.000     C          0.693658  
         C26       1.0000    0.82590   0.02835   0.30055   Biso      1.000     C          -0.302023           
         C27       1.0000    0.78540   0.00474   0.24372   Biso      1.000     C          0.0937    
         C28       1.0000    0.69060   0.04877   0.20576   Biso      1.000     C          -0.146682           
         C29       1.0000    0.65550   0.03340   0.15132   Biso      1.000     C          -0.073836           
         C30       1.0000    0.71660   0.97138   0.13536   Biso      1.000     C          0.000241  
         C31       1.0000    0.80590   0.92704   0.17396   Biso      1.000     C          -0.102751           
         C32       1.0000    0.83950   0.94296   0.22768   Biso      1.000     C          -0.123297           
         C33       1.0000    0.56790   0.08525   0.11053   Biso      1.000     C          0.667029  
         C34       1.0000    0.71670   0.95410   0.07354   Biso      1.000     C          0.605718  
         C35       1.0000    0.38000   0.40870   0.55025   Biso      1.000     C          0.613553  
         C36       1.0000    0.89330   0.34820   0.53210   Biso      1.000     C          -0.018473           
         C37       1.0000    0.43700   0.23903   0.81197   Biso      1.000     C          0.079284  
         C38       1.0000    0.36270   0.23141   0.91858   Biso      1.000     C          -0.041631           
         C39       1.0000    0.10670   0.65180   0.46790   Biso      1.000     C          -0.018474           
         C40       1.0000    0.01600   0.69671   0.42964   Biso      1.000     C          -0.080189           
         C41       1.0000    0.92170   0.75295   0.44897   Biso      1.000     C          -0.144178           
         C42       1.0000    0.21830   0.62159   0.56921   Biso      1.000     C          0.688187  
         C43       1.0000    0.18050   0.58729   0.45009   Biso      1.000     C          0.575646  
         C44       1.0000    0.65040   0.84951   0.50122   Biso      1.000     C          0.689533  
         C45       1.0000    0.11270   0.66536   0.52598   Biso      1.000     C          -0.029337           
         C46       1.0000    0.90840   0.87336   0.53706   Biso      1.000     C          0.693658  
         C47       1.0000    0.21460   0.99526   0.75628   Biso      1.000     C          0.0937    
         C48       1.0000    0.30940   0.95123   0.79424   Biso      1.000     C          -0.146682           
         C49       1.0000    0.34450   0.96660   0.84868   Biso      1.000     C          -0.073836           
         C50       1.0000    0.28340   0.02862   0.86464   Biso      1.000     C          0.000241  
         C51       1.0000    0.19410   0.07296   0.82604   Biso      1.000     C          -0.102751           
         C52       1.0000    0.16050   0.05704   0.77232   Biso      1.000     C          -0.123297           
         C53       1.0000    0.17410   0.97165   0.69945   Biso      1.000     C          -0.302023           
         C54       1.0000    0.01730   0.72076   0.54535   Biso      1.000     C          -0.163543           
         C55       1.0000    0.91660   0.76424   0.50826   Biso      1.000     C          0.103817  
         C56       1.0000    0.57540   0.69816   0.77086   Biso      1.000     C          0.638774  
         C57       1.0000    0.19370   0.23560   0.91148   Biso      1.000     C          -0.018415           
         C58       1.0000    0.14550   0.24600   0.85402   Biso      1.000     C          -0.105832           
         C59       1.0000    0.26600   0.24725   0.80500   Biso      1.000     C          -0.127576           
         C60       1.0000    0.41700   0.22774   0.97921   Biso      1.000     C          0.635568  
         C61       1.0000    0.05860   0.22651   0.96297   Biso      1.000     C          0.613326  
         C62       1.0000    0.74240   0.24443   0.76522   Biso      1.000     C          0.68658   
         C63       1.0000    0.58430   0.15866   0.74601   Biso      1.000     C          0.686628  
         C64       1.0000    0.13560   0.90286   0.71501   Biso      1.000     C          0.09526   
         C65       1.0000    0.72760   0.79459   0.59898   Biso      1.000     C          0.09635   
         C66       1.0000    0.66370   0.73663   0.60364   Biso      1.000     C          -0.168379           
         C67       1.0000    0.60470   0.70722   0.65794   Biso      1.000     C          -0.03377  
         C68       1.0000    0.60950   0.73504   0.71053   Biso      1.000     C          -0.035099           
         C69       1.0000    0.66550   0.79365   0.70558   Biso      1.000     C          -0.091217           
         C70       1.0000    0.72510   0.82352   0.65067   Biso      1.000     C          -0.142366           
         C71       1.0000    0.53320   0.64608   0.65891   Biso      1.000     C          0.687036  
         C72       1.0000    0.48440   0.23322   0.86921   Biso      1.000     C          -0.15095  
         C73       1.0000    0.88730   0.33464   0.47402   Biso      1.000     C          -0.029337           
         C74       1.0000    0.98270   0.27924   0.45465   Biso      1.000     C          -0.163543           
         C75       1.0000    0.08340   0.23576   0.49174   Biso      1.000     C          0.103817  
         C76       1.0000    0.48320   0.74318   0.35456   Biso      1.000     C          -0.138826           
         C77       1.0000    0.53340   0.70010   0.40117   Biso      1.000     C          -0.074615           
         C78       1.0000    0.58440   0.63558   0.39496   Biso      1.000     C          -0.035223           
         C79       1.0000    0.59240   0.61438   0.33877   Biso      1.000     C          -0.009964           
         C80       1.0000    0.54910   0.65931   0.29105   Biso      1.000     C          -0.169977           
         C81       1.0000    0.49120   0.72384   0.29796   Biso      1.000     C          0.105656  
         C82       1.0000    0.43380   0.76889   0.24398   Biso      1.000     C          -0.298589           
         C83       1.0000    0.65400   0.54608   0.32638   Biso      1.000     C          0.655946  
         C84       1.0000    0.02170   0.89222   0.76555   Biso      1.000     C          -0.166272           
         C85       1.0000    0.07150   0.77805   0.75899   Biso      1.000     C          -0.019209           
         C86       1.0000    0.17640   0.78902   0.70668   Biso      1.000     C          -0.089325           
         C87       1.0000    0.20990   0.85018   0.68447   Biso      1.000     C          -0.124339           
         C88       1.0000    0.85480   0.82689   0.84018   Biso      1.000     C          0.703163  
         C89       1.0000    0.06990   0.71006   0.78700   Biso      1.000     C          0.632462  
         C90       1.0000    0.43210   0.91475   0.88947   Biso      1.000     C          0.667029  
         C91       1.0000    0.01790   0.01324   0.67357   Biso      1.000     C          0.691876  
         C92       1.0000    0.98700   0.83165   0.78742   Biso      1.000     C          -0.054026           
         C93       1.0000    0.62000   0.59130   0.44975   Biso      1.000     C          0.613553  
         C94       1.0000    0.32900   0.97736   0.65297   Biso      1.000     C          0.691219  
         C95       1.0000    0.51560   0.76678   0.13079   Biso      1.000     C          -0.15095  
         C96       1.0000    0.56300   0.76097   0.18803   Biso      1.000     C          0.079284  
         C97       1.0000    0.42460   0.30184   0.22914   Biso      1.000     C          0.638774  
         C98       1.0000    0.46680   0.35392   0.34109   Biso      1.000     C          0.687037  
         C99       1.0000    0.27490   0.17648   0.34933   Biso      1.000     C          -0.142366           
         C100      1.0000    0.33450   0.20635   0.29442   Biso      1.000     C          -0.091217           
         C101      1.0000    0.39050   0.26496   0.28947   Biso      1.000     C          -0.035099           
         C102      1.0000    0.39530   0.29278   0.34206   Biso      1.000     C          -0.033773           
         C103      1.0000    0.33630   0.26337   0.39636   Biso      1.000     C          -0.168376           
         C104      1.0000    0.27240   0.20541   0.40102   Biso      1.000     C          0.09635   
         C105      1.0000    0.28330   0.04590   0.92646   Biso      1.000     C          0.605718  
         C106      1.0000    0.41570   0.84134   0.25399   Biso      1.000     C          0.686628  
         C107      1.0000    0.25760   0.75557   0.23478   Biso      1.000     C          0.68658   
         C108      1.0000    0.94140   0.77349   0.03703   Biso      1.000     C          0.613326  
         C109      1.0000    0.58300   0.77226   0.02079   Biso      1.000     C          0.635568  
         C110      1.0000    0.73400   0.75275   0.19500   Biso      1.000     C          -0.127581           
         C111      1.0000    0.85450   0.75400   0.14598   Biso      1.000     C          -0.105827           
         C112      1.0000    0.80630   0.76440   0.08852   Biso      1.000     C          -0.018415           
         C113      1.0000    0.19860   0.17963   0.46351   Biso      1.000     C          -0.301695           
         C114      1.0000    0.63730   0.76859   0.08142   Biso      1.000     C          -0.041631           
         F1        1.0000    0.73120   0.29955   0.78829   Biso      1.000     F          -0.185843           
         F2        1.0000    0.71380   0.14233   0.70464   Biso      1.000     F          -0.217331           
         F3        1.0000    0.44540   0.14664   0.72725   Biso      1.000     F          -0.186251           
         F4        1.0000    0.61120   0.12002   0.79548   Biso      1.000     F          -0.195064           
         F5        1.0000    0.56750   0.80366   0.48994   Biso      1.000     F          -0.195909           
         F6        1.0000    0.53800   0.89036   0.53198   Biso      1.000     F          -0.210705           
         F7        1.0000    0.81720   0.92797   0.55409   Biso      1.000     F          -0.197531           
         F8        1.0000    0.98950   0.88751   0.48344   Biso      1.000     F          -0.208244           
         F9        1.0000    0.82540   0.19831   0.80178   Biso      1.000     F          -0.202025           
         F10       1.0000    0.02690   0.85422   0.57427   Biso      1.000     F          -0.196715           
         F11       1.0000    0.37530   0.03535   0.64840   Biso      1.000     F          -0.208795           
         F12       1.0000    0.46300   0.93449   0.66882   Biso      1.000     F          -0.194566           
         F13       1.0000    0.30350   0.96723   0.59856   Biso      1.000     F          -0.193854           
         F14       1.0000    0.04440   0.07237   0.65043   Biso      1.000     F          -0.197791           
         F15       1.0000    0.69500   0.88137   0.44896   Biso      1.000     F          -0.203026           
         F16       1.0000    0.84290   0.24834   0.71361   Biso      1.000     F          -0.203702           
         F17       1.0000    0.69650   0.03277   0.40144   Biso      1.000     F          -0.193854           
         F18       1.0000    0.11290   0.97973   0.28402   Biso      1.000     F          -0.202135           
         F19       1.0000    0.15710   0.75166   0.28639   Biso      1.000     F          -0.203702           
         F20       1.0000    0.17460   0.80169   0.19822   Biso      1.000     F          -0.202025           
         F21       1.0000    0.26880   0.70045   0.21171   Biso      1.000     F          -0.185843           
         F22       1.0000    0.28620   0.85767   0.29536   Biso      1.000     F          -0.217331           
         F23       1.0000    0.55460   0.85336   0.27275   Biso      1.000     F          -0.186251           
         F24       1.0000    0.38880   0.87998   0.20452   Biso      1.000     F          -0.195064           
         F25       1.0000    0.03050   0.01432   0.36890   Biso      1.000     F          -0.204314           
         F26       1.0000    0.43250   0.19634   0.51006   Biso      1.000     F          -0.195909           
         F27       1.0000    0.01050   0.11249   0.51656   Biso      1.000     F          -0.208244           
         F28       1.0000    0.18280   0.07203   0.44591   Biso      1.000     F          -0.197531           
         F29       1.0000    0.97310   0.14578   0.42573   Biso      1.000     F          -0.196715           
         F30       1.0000    0.62470   0.96465   0.35160   Biso      1.000     F          -0.208795           
         F31       1.0000    0.53700   0.06551   0.33118   Biso      1.000     F          -0.194566           
         F32       1.0000    0.95560   0.92763   0.34957   Biso      1.000     F          -0.197791           
         F33       1.0000    0.46200   0.10964   0.46802   Biso      1.000     F          -0.210705           
         F34       1.0000    0.30500   0.11863   0.55104   Biso      1.000     F          -0.203026           
         F35       1.0000    0.96950   0.98568   0.63110   Biso      1.000     F          -0.204314           
         F36       1.0000    0.88710   0.02027   0.71598   Biso      1.000     F          -0.202135           
         H1        1.0000    0.13750   0.21720   0.57740   Biso      1.000     H          0.120148  
         H2        1.0000    0.64920   0.08970   0.21680   Biso      1.000     H          0.127091  
         H3        1.0000    0.84440   0.88560   0.16370   Biso      1.000     H          0.120229  
         H4        1.0000    0.03260   0.07290   0.21490   Biso      1.000     H          0.117826  
         H5        1.0000    0.77410   0.24560   0.31410   Biso      1.000     H          0.121367  
         H6        1.0000    0.71860   0.14400   0.35050   Biso      1.000     H          0.118746  
         H7        1.0000    0.44080   0.35410   0.74660   Biso      1.000     H          0.122211  
         H8        1.0000    0.46660   0.28550   0.56210   Biso      1.000     H          0.121327  
         H9        1.0000    0.55690   0.21420   0.63940   Biso      1.000     H          0.120191  
         H10       1.0000    0.59740   0.23060   0.87450   Biso      1.000     H          0.125596  
         H11       1.0000    0.03160   0.25210   0.84870   Biso      1.000     H          0.117349  
         H12       1.0000    0.23230   0.25370   0.76700   Biso      1.000     H          0.119574  
         H13       1.0000    0.66120   0.71770   0.56930   Biso      1.000     H          0.12928   
         H14       1.0000    0.66340   0.81360   0.73970   Biso      1.000     H          0.117335  
         H15       1.0000    0.76310   0.86270   0.64850   Biso      1.000     H          0.117741  
         H16       1.0000    0.98190   0.31090   0.60970   Biso      1.000     H          0.123342  
         H17       1.0000    0.97980   0.27060   0.41590   Biso      1.000     H          0.124924  
         H18       1.0000    0.28140   0.85600   0.64950   Biso      1.000     H          0.118746  
         H19       1.0000    0.33660   0.18640   0.26030   Biso      1.000     H          0.117335  
         H20       1.0000    0.22590   0.75440   0.68590   Biso      1.000     H          0.121367  
         H21       1.0000    0.96740   0.92710   0.78510   Biso      1.000     H          0.117826  
         H22       1.0000    0.10120   0.08790   0.74680   Biso      1.000     H          0.117174  
         H23       1.0000    0.23690   0.13730   0.35150   Biso      1.000     H          0.117741  
         H24       1.0000    0.35080   0.91030   0.78320   Biso      1.000     H          0.127091  
         H25       1.0000    0.86250   0.78280   0.42260   Biso      1.000     H          0.120148  
         H26       1.0000    0.01810   0.68910   0.39030   Biso      1.000     H          0.123342  
         H27       1.0000    0.02020   0.72940   0.58410   Biso      1.000     H          0.124924  
         H28       1.0000    0.15560   0.11440   0.83630   Biso      1.000     H          0.120229  
         H29       1.0000    0.53340   0.71450   0.43790   Biso      1.000     H          0.121327  
         H30       1.0000    0.55920   0.64590   0.25340   Biso      1.000     H          0.122211  
         H31       1.0000    0.33880   0.28230   0.43070   Biso      1.000     H          0.129279  
         H32       1.0000    0.76770   0.74630   0.23300   Biso      1.000     H          0.119574  
         H33       1.0000    0.89880   0.91210   0.25320   Biso      1.000     H          0.117174  
         H34       1.0000    0.40260   0.76940   0.12550   Biso      1.000     H          0.125596  
         H35       1.0000    0.44310   0.78580   0.36060   Biso      1.000     H          0.120192  
         H36       1.0000    0.96840   0.74790   0.15130   Biso      1.000     H          0.117348  
         O1        1.0000    0.25050   0.57942   0.39787   Biso      1.000     O          -0.614686           
         O2        1.0000    0.07930   0.69921   0.84245   Biso      1.000     O          -0.589576           
         O3        1.0000    0.84030   0.86881   0.87571   Biso      1.000     O          -0.6639   
         O4        1.0000    0.76390   0.78502   0.84372   Biso      1.000     O          -0.616211           
         O5        1.0000    0.16560   0.03035   0.96461   Biso      1.000     O          -0.613836           
         O6        1.0000    0.38750   0.07877   0.93875   Biso      1.000     O          -0.615958           
         O7        1.0000    0.49060   0.93228   0.93331   Biso      1.000     O          -0.633565           
         O8        1.0000    0.44020   0.85792   0.87935   Biso      1.000     O          -0.623702           
         O9        1.0000    0.17390   0.53946   0.48996   Biso      1.000     O          -0.594845           
         O10       1.0000    0.06860   0.66745   0.75355   Biso      1.000     O          -0.697584           
         O11       1.0000    0.36990   0.60373   0.55298   Biso      1.000     O          -0.59622  
         O12       1.0000    0.62840   0.63886   0.77577   Biso      1.000     O          -0.596919           
         O13       1.0000    0.74950   0.42058   0.60213   Biso      1.000     O          -0.614686           
         O14       1.0000    0.14280   0.60695   0.62081   Biso      1.000     O          -0.655752           
         O15       1.0000    0.85720   0.39305   0.37919   Biso      1.000     O          -0.655752           
         O16       1.0000    0.37160   0.36114   0.22423   Biso      1.000     O          -0.596919           
         O17       1.0000    0.49780   0.27081   0.18704   Biso      1.000     O          -0.696582           
         O18       1.0000    0.37910   0.39708   0.36930   Biso      1.000     O          -0.617491           
         O19       1.0000    0.61170   0.35561   0.31380   Biso      1.000     O          -0.643093           
         O20       1.0000    0.04650   0.72685   0.02234   Biso      1.000     O          -0.5498   
         O21       1.0000    0.94370   0.83099   0.01364   Biso      1.000     O          -0.675665           
         O22       1.0000    0.47810   0.73791   0.01180   Biso      1.000     O          -0.599294           
         O23       1.0000    0.64930   0.80696   0.97741   Biso      1.000     O          -0.688725           
         O24       1.0000    0.69270   0.60869   0.48866   Biso      1.000     O          -0.558627           
         O25       1.0000    0.56410   0.53809   0.45804   Biso      1.000     O          -0.643694           
         O26       1.0000    0.56930   0.50121   0.34328   Biso      1.000     O          -0.655083           
         O27       1.0000    0.79480   0.53492   0.29527   Biso      1.000     O          -0.625508           
         O28       1.0000    0.82610   0.46054   0.51004   Biso      1.000     O          -0.594845           
         O29       1.0000    0.55980   0.14208   0.12065   Biso      1.000     O          -0.623702           
         O30       1.0000    0.63010   0.39627   0.44702   Biso      1.000     O          -0.59622  
         O31       1.0000    0.61250   0.92123   0.06125   Biso      1.000     O          -0.615958           
         O32       1.0000    0.50220   0.72919   0.81296   Biso      1.000     O          -0.696582           
         O33       1.0000    0.62090   0.60292   0.63070   Biso      1.000     O          -0.617491           
         O34       1.0000    0.38830   0.64439   0.68620   Biso      1.000     O          -0.643093           
         O35       1.0000    0.95350   0.27315   0.97766   Biso      1.000     O          -0.5498   
         O36       1.0000    0.50940   0.06772   0.06669   Biso      1.000     O          -0.633565           
         O37       1.0000    0.52190   0.26209   0.98820   Biso      1.000     O          -0.599294           
         O38       1.0000    0.35070   0.19304   0.02259   Biso      1.000     O          -0.688725           
         O39       1.0000    0.30730   0.39131   0.51134   Biso      1.000     O          -0.558627           
         O40       1.0000    0.05630   0.16901   0.98636   Biso      1.000     O          -0.675665           
         O41       1.0000    0.43070   0.49879   0.65672   Biso      1.000     O          -0.655083           
         O42       1.0000    0.20520   0.46508   0.70473   Biso      1.000     O          -0.625508           
         O43       1.0000    0.92070   0.30079   0.15755   Biso      1.000     O          -0.589576           
         O44       1.0000    0.93140   0.33255   0.24645   Biso      1.000     O          -0.697584           
         O45       1.0000    0.15970   0.13119   0.12429   Biso      1.000     O          -0.6639   
         O46       1.0000    0.23610   0.21498   0.15628   Biso      1.000     O          -0.616211           
         O47       1.0000    0.83440   0.96965   0.03539   Biso      1.000     O          -0.613836           
         O48       1.0000    0.43590   0.46191   0.54196   Biso      1.000     O          -0.643694           
         Y1        1.0000    0.76043   0.90660   0.96365   Biso      1.000     Y          1.891433  
         Y2        1.0000    0.53567   0.75091   0.90439   Biso      1.000     Y          1.975964  
         Y3        1.0000    0.61357   0.52882   0.56691   Biso      1.000     Y          1.83904   
         Y4        1.0000    0.19793   0.57540   0.71600   Biso      1.000     Y          1.933626  
         Y5        1.0000    0.23957   0.09340   0.03635   Biso      1.000     Y          1.891433  
         Y6        1.0000    0.46433   0.24909   0.09561   Biso      1.000     Y          1.975964  
         Y7        1.0000    0.38643   0.47118   0.43309   Biso      1.000     Y          1.83904   
         Y8        1.0000    0.80207   0.42460   0.28400   Biso      1.000     Y          1.933626 