
##########################################################################
#               Crystallographic Information Format file
#               Produced by PyCifRW module
#
#  This is a CIF file.  CIF has been adopted by the International
#  Union of Crystallography as the standard for data archiving and
#  transmission.
#
#  For information on this file format, follow the CIF links at
#  http://www.iucr.org
##########################################################################

data_image0

_cell_length_a                          10.872
_cell_length_b                          16.737
_cell_length_c                          17.38
_cell_angle_alpha                       114.48
_cell_angle_beta                        92.95
_cell_angle_gamma                       99.63
_symmetry_space_group_name_H-M          'P 1'
_symmetry_int_tables_number             1
loop_
  _symmetry_equiv_pos_as_xyz
         'x, y, z' 
loop_
  _atom_site_label
  _atom_site_occupancy
  _atom_site_fract_x
  _atom_site_fract_y
  _atom_site_fract_z
  _atom_site_thermal_displace_type
  _atom_site_B_iso_or_equiv
  _atom_site_type_symbol
  _atom_site_charge
         C1        1.0000    0.28600   0.15300   0.85020   Biso      1.000     C          0.587861  
         C2        1.0000    0.71400   0.84700   0.14980   Biso      1.000     C          0.587861  
         C3        1.0000    0.16940   0.98940   0.75870   Biso      1.000     C          -0.15082  
         C4        1.0000    0.33800   0.57090   0.04940   Biso      1.000     C          0.619981  
         C5        1.0000    0.98190   0.42560   0.89260   Biso      1.000     C          -0.178067           
         C6        1.0000    0.89790   0.96930   0.84800   Biso      1.000     C          0.5834    
         C7        1.0000    0.87240   0.46060   0.89500   Biso      1.000     C          -0.166794           
         C8        1.0000    0.61770   0.93790   0.60810   Biso      1.000     C          0.626132  
         C9        1.0000    0.46730   0.06950   0.11900   Biso      1.000     C          -0.164944           
         C10       1.0000    0.68910   0.90360   0.65810   Biso      1.000     C          0.069325  
         C11       1.0000    0.81530   0.91800   0.76750   Biso      1.000     C          0.099413  
         C12       1.0000    0.17700   0.92950   0.67440   Biso      1.000     C          -0.160863           
         C13       1.0000    0.30890   0.94600   0.56110   Biso      1.000     C          0.585194  
         C14       1.0000    0.78260   0.82960   0.71830   Biso      1.000     C          -0.180207           
         C15       1.0000    0.57750   0.03040   0.11280   Biso      1.000     C          -0.187203           
         C16       1.0000    0.20560   0.54510   0.34890   Biso      1.000     C          -0.204255           
         C17       1.0000    0.83060   0.01060   0.24130   Biso      1.000     C          -0.150824           
         C18       1.0000    0.29940   0.55660   0.30810   Biso      1.000     C          0.110107  
         C19       1.0000    0.73840   0.02640   0.35600   Biso      1.000     C          0.084762  
         C20       1.0000    0.75080   0.93290   0.22570   Biso      1.000     C          0.101133  
         C21       1.0000    0.21220   0.93860   0.94500   Biso      1.000     C          0.595589  
         C22       1.0000    0.03930   0.63510   0.07520   Biso      1.000     C          0.094763  
         C23       1.0000    0.33830   0.92650   0.91960   Biso      1.000     C          0.093859  
         C24       1.0000    0.50720   0.86790   0.91050   Biso      1.000     C          0.081282  
         C25       1.0000    0.79040   0.41940   0.92820   Biso      1.000     C          0.07724   
         C26       1.0000    0.58520   0.81260   0.92920   Biso      1.000     C          0.598035  
         C27       1.0000    0.83680   0.66500   0.84400   Biso      1.000     C          0.584237  
         C28       1.0000    0.20960   0.58060   0.07180   Biso      1.000     C          0.077212  
         C29       1.0000    0.59330   0.36700   0.67390   Biso      1.000     C          0.565145  
         C30       1.0000    0.40670   0.63300   0.32610   Biso      1.000     C          0.565141  
         C31       1.0000    0.13630   0.45620   0.30130   Biso      1.000     C          -0.192308           
         C32       1.0000    0.70060   0.81980   0.64510   Biso      1.000     C          -0.185454           
         C33       1.0000    0.95870   0.68990   0.05620   Biso      1.000     C          0.604795  
         C34       1.0000    0.16320   0.33500   0.15600   Biso      1.000     C          0.584233  
         C35       1.0000    0.80590   0.57990   0.76640   Biso      1.000     C          0.072149  
         C36       1.0000    0.18470   0.08200   0.23250   Biso      1.000     C          0.099413  
         C37       1.0000    0.01810   0.57440   0.10740   Biso      1.000     C          -0.178049           
         C38       1.0000    0.26160   0.97360   0.64400   Biso      1.000     C          0.084786  
         C39       1.0000    0.31090   0.09640   0.34190   Biso      1.000     C          0.069325  
         C40       1.0000    0.42250   0.96960   0.88720   Biso      1.000     C          -0.18719  
         C41       1.0000    0.70060   0.44340   0.69190   Biso      1.000     C          0.110066  
         C42       1.0000    0.53270   0.93050   0.88100   Biso      1.000     C          -0.164922           
         C43       1.0000    0.38230   0.06210   0.39190   Biso      1.000     C          0.626132  
         C44       1.0000    0.29940   0.18020   0.35490   Biso      1.000     C          -0.185454           
         C45       1.0000    0.21740   0.17040   0.28170   Biso      1.000     C          -0.180207           
         C46       1.0000    0.12760   0.53940   0.10500   Biso      1.000     C          -0.166766           
         C47       1.0000    0.79440   0.45490   0.65110   Biso      1.000     C          -0.204215           
         C48       1.0000    0.19410   0.42010   0.23360   Biso      1.000     C          0.072183  
         C49       1.0000    0.66200   0.42910   0.95060   Biso      1.000     C          0.619978  
         C50       1.0000    0.10210   0.03070   0.15200   Biso      1.000     C          0.5834    
         C51       1.0000    0.41480   0.18740   0.07080   Biso      1.000     C          0.598033  
         C52       1.0000    0.24920   0.06710   0.77430   Biso      1.000     C          0.101133  
         C53       1.0000    0.86370   0.54380   0.69870   Biso      1.000     C          -0.192278           
         C54       1.0000    0.78780   0.06140   0.05500   Biso      1.000     C          0.595588  
         C55       1.0000    0.69110   0.05400   0.43890   Biso      1.000     C          0.585196  
         C56       1.0000    0.96070   0.36490   0.92480   Biso      1.000     C          0.094783  
         C57       1.0000    0.66170   0.07350   0.08040   Biso      1.000     C          0.093874  
         C58       1.0000    0.04130   0.31010   0.94380   Biso      1.000     C          0.604793  
         C59       1.0000    0.49280   0.13210   0.08950   Biso      1.000     C          0.081304  
         C60       1.0000    0.82300   0.07050   0.32560   Biso      1.000     C          -0.160838           
         H1        1.0000    0.33680   0.23360   0.40160   Biso      1.000     H          0.157003  
         H2        1.0000    0.81240   0.41270   0.60020   Biso      1.000     H          0.153349  
         H3        1.0000    0.93540   0.57140   0.68520   Biso      1.000     H          0.148129  
         H4        1.0000    0.41140   0.01530   0.87190   Biso      1.000     H          0.146718  
         H5        1.0000    0.06460   0.42860   0.31480   Biso      1.000     H          0.148131  
         H6        1.0000    0.94480   0.55850   0.12760   Biso      1.000     H          0.154133  
         H7        1.0000    0.66320   0.76640   0.59840   Biso      1.000     H          0.157003  
         H8        1.0000    0.86800   0.12930   0.35490   Biso      1.000     H          0.157671  
         H9        1.0000    0.18760   0.58730   0.39980   Biso      1.000     H          0.153352  
         H10       1.0000    0.58860   0.98470   0.12810   Biso      1.000     H          0.146719  
         H11       1.0000    0.80730   0.78410   0.72880   Biso      1.000     H          0.158814  
         H12       1.0000    0.60620   0.94570   0.86060   Biso      1.000     H          0.151789  
         H13       1.0000    0.13200   0.87070   0.64510   Biso      1.000     H          0.157673  
         H14       1.0000    0.14030   0.49600   0.12310   Biso      1.000     H          0.146827  
         H15       1.0000    0.39380   0.05430   0.13940   Biso      1.000     H          0.151791  
         H16       1.0000    0.85970   0.50400   0.87690   Biso      1.000     H          0.146829  
         H17       1.0000    0.05520   0.44150   0.87240   Biso      1.000     H          0.154134  
         H18       1.0000    0.88050   0.02220   0.20370   Biso      1.000     H          0.154728  
         H19       1.0000    0.11950   0.97780   0.79630   Biso      1.000     H          0.154728  
         H20       1.0000    0.19270   0.21590   0.27120   Biso      1.000     H          0.158814  
         K1        1.0000    0.73014   0.25633   0.01824   Biso      1.000     K          0.874738  
         K2        1.0000    0.26986   0.74367   0.98176   Biso      1.000     K          0.874738  
         La1       1.0000    0.08260   0.14079   0.01261   Biso      1.000     La          1.972147  
         La2       1.0000    0.37069   0.34364   0.99611   Biso      1.000     La          2.011281  
         La3       1.0000    0.43860   0.86483   0.40578   Biso      1.000     La          2.009656  
         La4       1.0000    0.91740   0.85921   0.98739   Biso      1.000     La          1.972147  
         La5       1.0000    0.62931   0.65636   0.00389   Biso      1.000     La          2.011281  
         La6       1.0000    0.56140   0.13517   0.59422   Biso      1.000     La          2.009656  
         O1        1.0000    0.14770   0.87740   0.95970   Biso      1.000     O          -0.644429           
         O2        1.0000    0.30830   0.05890   0.70400   Biso      1.000     O          -0.144711           
         O3        1.0000    0.07860   0.27380   0.15580   Biso      1.000     O          -0.588883           
         O4        1.0000    0.62510   0.49490   0.94620   Biso      1.000     O          -0.663559           
         O5        1.0000    0.29610   0.48080   0.23700   Biso      1.000     O          -0.122257           
         O6        1.0000    0.38240   0.00200   0.54540   Biso      1.000     O          -0.703038           
         O7        1.0000    0.21990   0.32800   0.09360   Biso      1.000     O          -0.691076           
         O8        1.0000    0.37520   0.21180   0.85110   Biso      1.000     O          -0.628141           
         O9        1.0000    0.75910   0.96450   0.73260   Biso      1.000     O          -0.111825           
         O10       1.0000    0.93500   0.05200   0.87260   Biso      1.000     O          -0.60558  
         O11       1.0000    0.15370   0.32760   0.93180   Biso      1.000     O          -0.637833           
         O12       1.0000    0.60000   0.37240   0.97030   Biso      1.000     O          -0.656831           
         O13       1.0000    0.22600   0.16570   0.91270   Biso      1.000     O          -0.645819           
         O14       1.0000    0.85230   0.12260   0.04030   Biso      1.000     O          -0.644429           
         O15       1.0000    0.84100   0.35920   0.94700   Biso      1.000     O          -0.177349           
         O16       1.0000    0.61180   0.13650   0.06630   Biso      1.000     O          -0.181355           
         O17       1.0000    0.99260   0.25270   0.96810   Biso      1.000     O          -0.612962           
         O18       1.0000    0.50410   0.38170   0.71540   Biso      1.000     O          -0.573874           
         O19       1.0000    0.92880   0.92690   0.88800   Biso      1.000     O          -0.637419           
         O20       1.0000    0.30430   0.17730   0.08800   Biso      1.000     O          -0.591816           
         O21       1.0000    0.46350   0.23820   0.03830   Biso      1.000     O          -0.689681           
         O22       1.0000    0.62580   0.02210   0.63960   Biso      1.000     O          -0.668956           
         O23       1.0000    0.27410   0.86520   0.50870   Biso      1.000     O          -0.570782           
         O24       1.0000    0.55460   0.88020   0.53960   Biso      1.000     O          -0.610597           
         O25       1.0000    0.15900   0.64080   0.05300   Biso      1.000     O          -0.177345           
         O26       1.0000    0.77400   0.83430   0.08730   Biso      1.000     O          -0.645819           
         O27       1.0000    0.40000   0.62760   0.02970   Biso      1.000     O          -0.656831           
         O28       1.0000    0.84630   0.67240   0.06820   Biso      1.000     O          -0.637833           
         O29       1.0000    0.06500   0.94800   0.12740   Biso      1.000     O          -0.60558  
         O30       1.0000    0.24090   0.03550   0.26740   Biso      1.000     O          -0.111825           
         O31       1.0000    0.62480   0.78820   0.14890   Biso      1.000     O          -0.628141           
         O32       1.0000    0.78010   0.67200   0.90640   Biso      1.000     O          -0.691076           
         O33       1.0000    0.61760   0.99800   0.45460   Biso      1.000     O          -0.703038           
         O34       1.0000    0.70390   0.51920   0.76300   Biso      1.000     O          -0.122252           
         O35       1.0000    0.37490   0.50510   0.05380   Biso      1.000     O          -0.663559           
         O36       1.0000    0.92140   0.72620   0.84420   Biso      1.000     O          -0.588884           
         O37       1.0000    0.38820   0.86350   0.93370   Biso      1.000     O          -0.181352           
         O38       1.0000    0.00740   0.74730   0.03190   Biso      1.000     O          -0.612963           
         O39       1.0000    0.69170   0.94110   0.29600   Biso      1.000     O          -0.14471  
         O40       1.0000    0.07120   0.07310   0.11200   Biso      1.000     O          -0.637419           
         O41       1.0000    0.69570   0.82270   0.91200   Biso      1.000     O          -0.591816           
         O42       1.0000    0.37420   0.97790   0.36040   Biso      1.000     O          -0.668956           
         O43       1.0000    0.72590   0.13480   0.49130   Biso      1.000     O          -0.570783           
         O44       1.0000    0.53650   0.76180   0.96170   Biso      1.000     O          -0.689681           
         O45       1.0000    0.18120   0.00870   0.94850   Biso      1.000     O          -0.611761           
         O46       1.0000    0.44540   0.11980   0.46040   Biso      1.000     O          -0.610597           
         O47       1.0000    0.49590   0.61830   0.28460   Biso      1.000     O          -0.573873           
         O48       1.0000    0.39360   0.70700   0.38290   Biso      1.000     O          -0.690049           
         O49       1.0000    0.60640   0.29300   0.61710   Biso      1.000     O          -0.69005  
         O50       1.0000    0.81880   0.99130   0.05150   Biso      1.000     O          -0.61176 