
##########################################################################
#               Crystallographic Information Format file
#               Produced by PyCifRW module
#
#  This is a CIF file.  CIF has been adopted by the International
#  Union of Crystallography as the standard for data archiving and
#  transmission.
#
#  For information on this file format, follow the CIF links at
#  http://www.iucr.org
##########################################################################

data_image0

_cell_length_a                          10.819
_cell_length_b                          16.73
_cell_length_c                          17.37
_cell_angle_alpha                       114.65
_cell_angle_beta                        93.04
_cell_angle_gamma                       99.62
_symmetry_space_group_name_H-M          'P 1'
_symmetry_int_tables_number             1
loop_
  _symmetry_equiv_pos_as_xyz
         'x, y, z' 
loop_
  _atom_site_label
  _atom_site_occupancy
  _atom_site_fract_x
  _atom_site_fract_y
  _atom_site_fract_z
  _atom_site_thermal_displace_type
  _atom_site_B_iso_or_equiv
  _atom_site_type_symbol
  _atom_site_charge
         C1        1.0000    0.80720   0.57920   0.76680   Biso      1.000     C          0.072479  
         C2        1.0000    0.12650   0.53870   0.10510   Biso      1.000     C          -0.162395           
         C3        1.0000    0.16270   0.33590   0.15450   Biso      1.000     C          0.5964520000000001  
         C4        1.0000    0.79020   0.42000   0.92890   Biso      1.000     C          0.07933   
         C5        1.0000    0.10120   0.03330   0.15190   Biso      1.000     C          0.596813  
         C6        1.0000    0.16900   0.98800   0.75790   Biso      1.000     C          -0.160128           
         C7        1.0000    0.28530   0.15220   0.85130   Biso      1.000     C          0.596132  
         C8        1.0000    0.98370   0.42460   0.89110   Biso      1.000     C          -0.17815  
         C9        1.0000    0.33660   0.56950   0.04910   Biso      1.000     C          0.633283  
         C10       1.0000    0.89880   0.96670   0.84810   Biso      1.000     C          0.596815  
         C11       1.0000    0.87350   0.46130   0.89490   Biso      1.000     C          -0.162377           
         C12       1.0000    0.20980   0.58000   0.07110   Biso      1.000     C          0.079347  
         C13       1.0000    0.61950   0.93830   0.60620   Biso      1.000     C          0.638549  
         C14       1.0000    0.46800   0.07000   0.11890   Biso      1.000     C          -0.165    
         C15       1.0000    0.13380   0.45750   0.30030   Biso      1.000     C          -0.188422           
         C16       1.0000    0.50690   0.86660   0.90970   Biso      1.000     C          0.0837    
         C17       1.0000    0.81660   0.91530   0.76520   Biso      1.000     C          0.095529  
         C18       1.0000    0.17620   0.92800   0.67400   Biso      1.000     C          -0.156556           
         C19       1.0000    0.58570   0.81070   0.92760   Biso      1.000     C          0.60939   
         C20       1.0000    0.30950   0.94480   0.56030   Biso      1.000     C          0.595357  
         C21       1.0000    0.78320   0.82650   0.71370   Biso      1.000     C          -0.17813299999999999          
         C22       1.0000    0.83100   0.01200   0.24210   Biso      1.000     C          -0.160128           
         C23       1.0000    0.57840   0.03100   0.11230   Biso      1.000     C          -0.18311  
         C24       1.0000    0.20230   0.54600   0.35000   Biso      1.000     C          -0.201295           
         C25       1.0000    0.71470   0.84780   0.14870   Biso      1.000     C          0.596132  
         C26       1.0000    0.01630   0.57540   0.10890   Biso      1.000     C          -0.178148           
         C27       1.0000    0.30020   0.55860   0.31070   Biso      1.000     C          0.11191199999999998           
         C28       1.0000    0.70130   0.81860   0.64310   Biso      1.000     C          -0.18272  
         C29       1.0000    0.59340   0.36520   0.67100   Biso      1.000     C          0.570736  
         C30       1.0000    0.69210   0.90230   0.65630   Biso      1.000     C          0.066876  
         C31       1.0000    0.04210   0.30870   0.94170   Biso      1.000     C          0.6205930000000001  
         C32       1.0000    0.40660   0.63480   0.32900   Biso      1.000     C          0.570734  
         C33       1.0000    0.96240   0.36350   0.92340   Biso      1.000     C          0.097674  
         C34       1.0000    0.75060   0.93460   0.22610   Biso      1.000     C          0.111516  
         C35       1.0000    0.86620   0.54250   0.69970   Biso      1.000     C          -0.188393           
         C36       1.0000    0.41430   0.18930   0.07240   Biso      1.000     C          0.609387  
         C37       1.0000    0.49310   0.13340   0.09030   Biso      1.000     C          0.083722  
         C38       1.0000    0.21170   0.93860   0.94590   Biso      1.000     C          0.612089  
         C39       1.0000    0.26070   0.97230   0.64250   Biso      1.000     C          0.081813  
         C40       1.0000    0.29870   0.18140   0.35690   Biso      1.000     C          -0.18271800000000002          
         C41       1.0000    0.69980   0.44140   0.68930   Biso      1.000     C          0.111882  
         C42       1.0000    0.03760   0.63650   0.07660   Biso      1.000     C          0.097674  
         C43       1.0000    0.79770   0.45400   0.65000   Biso      1.000     C          -0.201266           
         C44       1.0000    0.33770   0.92650   0.91950   Biso      1.000     C          0.09677999999999999           
         C45       1.0000    0.66230   0.07350   0.08050   Biso      1.000     C          0.096801  
         C46       1.0000    0.95790   0.69130   0.05830   Biso      1.000     C          0.6205930000000001  
         C47       1.0000    0.21680   0.17350   0.28630   Biso      1.000     C          -0.178152           
         C48       1.0000    0.42160   0.96900   0.88770   Biso      1.000     C          -0.183091           
         C49       1.0000    0.83730   0.66410   0.84550   Biso      1.000     C          0.5964550000000001  
         C50       1.0000    0.82380   0.07200   0.32600   Biso      1.000     C          -0.156556           
         C51       1.0000    0.18340   0.08470   0.23480   Biso      1.000     C          0.095547  
         C52       1.0000    0.30790   0.09770   0.34370   Biso      1.000     C          0.06687699999999999           
         C53       1.0000    0.78830   0.06140   0.05410   Biso      1.000     C          0.6120869999999999  
         C54       1.0000    0.73930   0.02770   0.35750   Biso      1.000     C          0.081813  
         C55       1.0000    0.24940   0.06540   0.77390   Biso      1.000     C          0.111515  
         C56       1.0000    0.53200   0.93000   0.88110   Biso      1.000     C          -0.16498  
         C57       1.0000    0.38050   0.06170   0.39380   Biso      1.000     C          0.638548  
         C58       1.0000    0.69050   0.05520   0.43970   Biso      1.000     C          0.595357  
         C59       1.0000    0.66340   0.43050   0.95090   Biso      1.000     C          0.633285  
         C60       1.0000    0.19280   0.42080   0.23320   Biso      1.000     C          0.07251   
         Ce1       1.0000    0.37144   0.34357   0.99600   Biso      1.000     Ce          2.155066  
         Ce2       1.0000    0.43799   0.86573   0.40561   Biso      1.000     Ce          2.1250709999999997  
         Ce3       1.0000    0.62856   0.65643   0.00400   Biso      1.000     Ce          2.155066  
         Ce4       1.0000    0.91718   0.85903   0.98720   Biso      1.000     Ce          2.15345   
         Ce5       1.0000    0.08282   0.14097   0.01280   Biso      1.000     Ce          2.15345   
         Ce6       1.0000    0.56201   0.13427   0.59439   Biso      1.000     Ce          2.1250709999999997  
         H1        1.0000    0.88150   0.02350   0.20460   Biso      1.000     H          0.15606   
         H2        1.0000    0.05700   0.43980   0.87030   Biso      1.000     H          0.157056  
         H3        1.0000    0.66160   0.76550   0.59650   Biso      1.000     H          0.155354  
         H4        1.0000    0.93950   0.57020   0.68770   Biso      1.000     H          0.14613299999999999           
         H5        1.0000    0.33840   0.23450   0.40350   Biso      1.000     H          0.155354  
         H6        1.0000    0.81750   0.41240   0.59920   Biso      1.000     H          0.153425  
         H7        1.0000    0.41060   0.01490   0.87280   Biso      1.000     H          0.14657699999999999           
         H8        1.0000    0.19170   0.21990   0.27740   Biso      1.000     H          0.158022  
         H9        1.0000    0.86860   0.13110   0.35500   Biso      1.000     H          0.156399  
         H10       1.0000    0.60590   0.94570   0.86100   Biso      1.000     H          0.15093299999999998           
         H11       1.0000    0.06050   0.42980   0.31230   Biso      1.000     H          0.146135  
         H12       1.0000    0.13880   0.49490   0.12270   Biso      1.000     H          0.147781  
         H13       1.0000    0.94300   0.56020   0.12970   Biso      1.000     H          0.157056  
         H14       1.0000    0.86120   0.50510   0.87730   Biso      1.000     H          0.14778   
         H15       1.0000    0.39410   0.05430   0.13900   Biso      1.000     H          0.15093499999999999           
         H16       1.0000    0.13140   0.86890   0.64500   Biso      1.000     H          0.156399  
         H17       1.0000    0.80830   0.78010   0.72260   Biso      1.000     H          0.158021  
         H18       1.0000    0.58940   0.98510   0.12720   Biso      1.000     H          0.146579  
         H19       1.0000    0.18250   0.58760   0.40080   Biso      1.000     H          0.153427  
         H20       1.0000    0.11850   0.97650   0.79540   Biso      1.000     H          0.15606   
         K1        1.0000    0.73215   0.25778   0.02000   Biso      1.000     K          0.8799530000000001  
         K2        1.0000    0.26785   0.74222   0.98000   Biso      1.000     K          0.8799530000000001  
         O1        1.0000    0.62390   0.78870   0.14830   Biso      1.000     O          -0.657493           
         O2        1.0000    0.62820   0.02210   0.63860   Biso      1.000     O          -0.692508           
         O3        1.0000    0.30690   0.05740   0.70390   Biso      1.000     O          -0.14194400000000001          
         O4        1.0000    0.07730   0.27500   0.15330   Biso      1.000     O          -0.602847           
         O5        1.0000    0.62560   0.49580   0.94670   Biso      1.000     O          -0.6907220000000001           
         O6        1.0000    0.29780   0.48240   0.23850   Biso      1.000     O          -0.126723           
         O7        1.0000    0.38350   0.00180   0.54570   Biso      1.000     O          -0.746816           
         O8        1.0000    0.22280   0.33040   0.09300   Biso      1.000     O          -0.740609           
         O9        1.0000    0.37610   0.21130   0.85170   Biso      1.000     O          -0.657493           
         O10       1.0000    0.76140   0.96290   0.73130   Biso      1.000     O          -0.104725           
         O11       1.0000    0.93660   0.05010   0.87380   Biso      1.000     O          -0.639466           
         O12       1.0000    0.15480   0.32610   0.93070   Biso      1.000     O          -0.662085           
         O13       1.0000    0.59980   0.37390   0.97230   Biso      1.000     O          -0.701979           
         O14       1.0000    0.22630   0.16520   0.91390   Biso      1.000     O          -0.68106  
         O15       1.0000    0.85410   0.12260   0.04050   Biso      1.000     O          -0.672054           
         O16       1.0000    0.84110   0.35870   0.94650   Biso      1.000     O          -0.182624           
         O17       1.0000    0.50190   0.37990   0.71200   Biso      1.000     O          -0.584908           
         O18       1.0000    0.61190   0.13760   0.06680   Biso      1.000     O          -0.186777           
         O19       1.0000    0.99360   0.25130   0.96680   Biso      1.000     O          -0.645884           
         O20       1.0000    0.92940   0.92280   0.88610   Biso      1.000     O          -0.6701590000000001           
         O21       1.0000    0.30300   0.17930   0.08980   Biso      1.000     O          -0.619289           
         O22       1.0000    0.46290   0.23980   0.03940   Biso      1.000     O          -0.715391           
         O23       1.0000    0.27230   0.86450   0.50690   Biso      1.000     O          -0.58263  
         O24       1.0000    0.55490   0.88020   0.53770   Biso      1.000     O          -0.634182           
         O25       1.0000    0.39360   0.70940   0.38440   Biso      1.000     O          -0.724314           
         O26       1.0000    0.49810   0.62010   0.28800   Biso      1.000     O          -0.584908           
         O27       1.0000    0.77720   0.66960   0.90700   Biso      1.000     O          -0.74061  
         O28       1.0000    0.61650   0.99820   0.45430   Biso      1.000     O          -0.746816           
         O29       1.0000    0.70220   0.51760   0.76150   Biso      1.000     O          -0.126719           
         O30       1.0000    0.37440   0.50420   0.05330   Biso      1.000     O          -0.690721           
         O31       1.0000    0.92270   0.72500   0.84670   Biso      1.000     O          -0.602847           
         O32       1.0000    0.06340   0.94990   0.12620   Biso      1.000     O          -0.639466           
         O33       1.0000    0.84520   0.67390   0.06930   Biso      1.000     O          -0.662085           
         O34       1.0000    0.69310   0.94260   0.29610   Biso      1.000     O          -0.14194400000000001          
         O35       1.0000    0.40020   0.62610   0.02770   Biso      1.000     O          -0.701979           
         O36       1.0000    0.77370   0.83480   0.08610   Biso      1.000     O          -0.68106  
         O37       1.0000    0.23860   0.03710   0.26870   Biso      1.000     O          -0.104727           
         O38       1.0000    0.14590   0.87740   0.95950   Biso      1.000     O          -0.672054           
         O39       1.0000    0.38810   0.86240   0.93320   Biso      1.000     O          -0.186774           
         O40       1.0000    0.37180   0.97790   0.36140   Biso      1.000     O          -0.692507           
         O41       1.0000    0.72770   0.13550   0.49310   Biso      1.000     O          -0.58263  
         O42       1.0000    0.00640   0.74870   0.03320   Biso      1.000     O          -0.645884           
         O43       1.0000    0.07060   0.07720   0.11390   Biso      1.000     O          -0.670158           
         O44       1.0000    0.44510   0.11980   0.46230   Biso      1.000     O          -0.6341829999999999           
         O45       1.0000    0.69700   0.82070   0.91020   Biso      1.000     O          -0.619289           
         O46       1.0000    0.53710   0.76020   0.96060   Biso      1.000     O          -0.715391           
         O47       1.0000    0.18240   0.00950   0.95080   Biso      1.000     O          -0.64528  
         O48       1.0000    0.60640   0.29060   0.61560   Biso      1.000     O          -0.7243149999999999           
         O49       1.0000    0.15890   0.64130   0.05350   Biso      1.000     O          -0.182625           
         O50       1.0000    0.81760   0.99050   0.04920   Biso      1.000     O          -0.645279 