
##########################################################################
#               Crystallographic Information Format file
#               Produced by PyCifRW module
#
#  This is a CIF file.  CIF has been adopted by the International
#  Union of Crystallography as the standard for data archiving and
#  transmission.
#
#  For information on this file format, follow the CIF links at
#  http://www.iucr.org
##########################################################################

data_image0

_cell_length_a                          10.786
_cell_length_b                          16.726
_cell_length_c                          17.385
_cell_angle_alpha                       114.67
_cell_angle_beta                        93.29
_cell_angle_gamma                       99.58
_symmetry_space_group_name_H-M          'P 1'
_symmetry_int_tables_number             1
loop_
  _symmetry_equiv_pos_as_xyz
         'x, y, z' 
loop_
  _atom_site_label
  _atom_site_occupancy
  _atom_site_fract_x
  _atom_site_fract_y
  _atom_site_fract_z
  _atom_site_thermal_displace_type
  _atom_site_B_iso_or_equiv
  _atom_site_type_symbol
  _atom_site_charge
         C1        1.0000    0.28570   0.15260   0.85160   Biso      1.000     C          0.6057560000000001  
         C2        1.0000    0.71430   0.84740   0.14840   Biso      1.000     C          0.6057560000000001  
         C3        1.0000    0.16770   0.98650   0.75680   Biso      1.000     C          -0.158771           
         C4        1.0000    0.33630   0.56950   0.04810   Biso      1.000     C          0.6422979999999999  
         C5        1.0000    0.98470   0.42450   0.89090   Biso      1.000     C          -0.184034           
         C6        1.0000    0.89700   0.96600   0.84880   Biso      1.000     C          0.6004510000000001  
         C7        1.0000    0.87490   0.46090   0.89500   Biso      1.000     C          -0.15696  
         C8        1.0000    0.61990   0.93780   0.60490   Biso      1.000     C          0.650095  
         C9        1.0000    0.46840   0.07120   0.11890   Biso      1.000     C          -0.160744           
         C10       1.0000    0.69110   0.90160   0.65520   Biso      1.000     C          0.06768500000000001           
         C11       1.0000    0.81440   0.91390   0.76630   Biso      1.000     C          0.096036  
         C12       1.0000    0.17450   0.92640   0.67270   Biso      1.000     C          -0.15347  
         C13       1.0000    0.30910   0.94460   0.56030   Biso      1.000     C          0.59956   
         C14       1.0000    0.77810   0.82580   0.71380   Biso      1.000     C          -0.173929           
         C15       1.0000    0.57950   0.03150   0.11230   Biso      1.000     C          -0.183542           
         C16       1.0000    0.20160   0.54740   0.34780   Biso      1.000     C          -0.197121           
         C17       1.0000    0.83230   0.01350   0.24320   Biso      1.000     C          -0.158772           
         C18       1.0000    0.30150   0.56060   0.31030   Biso      1.000     C          0.112883  
         C19       1.0000    0.73940   0.02840   0.35720   Biso      1.000     C          0.080144  
         C20       1.0000    0.75230   0.93550   0.22650   Biso      1.000     C          0.109203  
         C21       1.0000    0.20960   0.93850   0.94610   Biso      1.000     C          0.621584  
         C22       1.0000    0.03760   0.63670   0.07740   Biso      1.000     C          0.101102  
         C23       1.0000    0.33590   0.92600   0.91940   Biso      1.000     C          0.098747  
         C24       1.0000    0.50750   0.86520   0.90980   Biso      1.000     C          0.08215700000000001           
         C25       1.0000    0.79170   0.42110   0.92950   Biso      1.000     C          0.075584  
         C26       1.0000    0.58470   0.80970   0.92900   Biso      1.000     C          0.622796  
         C27       1.0000    0.83400   0.66260   0.84640   Biso      1.000     C          0.5965560000000001  
         C28       1.0000    0.20830   0.57890   0.07050   Biso      1.000     C          0.07556   
         C29       1.0000    0.59210   0.36370   0.67190   Biso      1.000     C          0.575285  
         C30       1.0000    0.40790   0.63630   0.32810   Biso      1.000     C          0.575282  
         C31       1.0000    0.13330   0.45780   0.29690   Biso      1.000     C          -0.192623           
         C32       1.0000    0.69850   0.81710   0.64220   Biso      1.000     C          -0.180825           
         C33       1.0000    0.95570   0.69240   0.05890   Biso      1.000     C          0.624754  
         C34       1.0000    0.16600   0.33740   0.15360   Biso      1.000     C          0.5965520000000001  
         C35       1.0000    0.80560   0.57810   0.76790   Biso      1.000     C          0.08633500000000001           
         C36       1.0000    0.18560   0.08610   0.23370   Biso      1.000     C          0.096036  
         C37       1.0000    0.01530   0.57550   0.10910   Biso      1.000     C          -0.184014           
         C38       1.0000    0.26060   0.97160   0.64280   Biso      1.000     C          0.080153  
         C39       1.0000    0.30890   0.09840   0.34480   Biso      1.000     C          0.06768500000000001           
         C40       1.0000    0.42050   0.96850   0.88770   Biso      1.000     C          -0.18352100000000002          
         C41       1.0000    0.69850   0.43940   0.68970   Biso      1.000     C          0.112852  
         C42       1.0000    0.53160   0.92880   0.88110   Biso      1.000     C          -0.160728           
         C43       1.0000    0.38010   0.06220   0.39510   Biso      1.000     C          0.650095  
         C44       1.0000    0.30150   0.18290   0.35780   Biso      1.000     C          -0.180825           
         C45       1.0000    0.22190   0.17420   0.28620   Biso      1.000     C          -0.173929           
         C46       1.0000    0.12510   0.53910   0.10500   Biso      1.000     C          -0.156937           
         C47       1.0000    0.79840   0.45260   0.65220   Biso      1.000     C          -0.19709200000000002          
         C48       1.0000    0.19440   0.42190   0.23210   Biso      1.000     C          0.086371  
         C49       1.0000    0.66370   0.43050   0.95190   Biso      1.000     C          0.642296  
         C50       1.0000    0.10300   0.03400   0.15120   Biso      1.000     C          0.6004510000000001  
         C51       1.0000    0.41530   0.19030   0.07100   Biso      1.000     C          0.622795  
         C52       1.0000    0.24770   0.06450   0.77350   Biso      1.000     C          0.109202  
         C53       1.0000    0.86670   0.54220   0.70310   Biso      1.000     C          -0.192588           
         C54       1.0000    0.79040   0.06150   0.05390   Biso      1.000     C          0.621582  
         C55       1.0000    0.69090   0.05540   0.43970   Biso      1.000     C          0.59956   
         C56       1.0000    0.96240   0.36330   0.92260   Biso      1.000     C          0.101123  
         C57       1.0000    0.66410   0.07400   0.08060   Biso      1.000     C          0.098768  
         C58       1.0000    0.04430   0.30760   0.94110   Biso      1.000     C          0.6247520000000001  
         C59       1.0000    0.49250   0.13480   0.09020   Biso      1.000     C          0.082175  
         C60       1.0000    0.82550   0.07360   0.32730   Biso      1.000     C          -0.15345999999999999          
         H1        1.0000    0.34100   0.23620   0.40460   Biso      1.000     H          0.15750899999999998           
         H2        1.0000    0.81970   0.41120   0.60210   Biso      1.000     H          0.15394000000000002           
         H3        1.0000    0.94120   0.57010   0.69240   Biso      1.000     H          0.146557  
         H4        1.0000    0.40980   0.01460   0.87290   Biso      1.000     H          0.147038  
         H5        1.0000    0.05880   0.42990   0.30760   Biso      1.000     H          0.14656   
         H6        1.0000    0.94170   0.56020   0.12970   Biso      1.000     H          0.157393  
         H7        1.0000    0.65900   0.76380   0.59540   Biso      1.000     H          0.15750899999999998           
         H8        1.0000    0.87080   0.13260   0.35680   Biso      1.000     H          0.158493  
         H9        1.0000    0.18030   0.58880   0.39790   Biso      1.000     H          0.153943  
         H10       1.0000    0.59020   0.98540   0.12710   Biso      1.000     H          0.147039  
         H11       1.0000    0.80120   0.77900   0.72290   Biso      1.000     H          0.155555  
         H12       1.0000    0.60540   0.94430   0.86090   Biso      1.000     H          0.149866  
         H13       1.0000    0.12920   0.86740   0.64320   Biso      1.000     H          0.158493  
         H14       1.0000    0.13770   0.49550   0.12300   Biso      1.000     H          0.147655  
         H15       1.0000    0.39460   0.05570   0.13910   Biso      1.000     H          0.149868  
         H16       1.0000    0.86230   0.50450   0.87700   Biso      1.000     H          0.14765699999999998           
         H17       1.0000    0.05830   0.43980   0.87030   Biso      1.000     H          0.157394  
         H18       1.0000    0.88260   0.02530   0.20590   Biso      1.000     H          0.15628499999999998           
         H19       1.0000    0.11740   0.97470   0.79410   Biso      1.000     H          0.15628499999999998           
         H20       1.0000    0.19880   0.22100   0.27710   Biso      1.000     H          0.155555  
         K1        1.0000    0.73380   0.25844   0.02004   Biso      1.000     K          0.882993  
         K2        1.0000    0.26620   0.74156   0.97996   Biso      1.000     K          0.882993  
         O1        1.0000    0.14470   0.87750   0.96050   Biso      1.000     O          -0.688347           
         O2        1.0000    0.60860   0.28850   0.61600   Biso      1.000     O          -0.753376           
         O3        1.0000    0.27260   0.86480   0.50590   Biso      1.000     O          -0.588408           
         O4        1.0000    0.63050   0.02140   0.63680   Biso      1.000     O          -0.707358           
         O5        1.0000    0.30730   0.05740   0.70420   Biso      1.000     O          -0.146026           
         O6        1.0000    0.08000   0.27470   0.15000   Biso      1.000     O          -0.615345           
         O7        1.0000    0.62780   0.49770   0.94940   Biso      1.000     O          -0.7204109999999999           
         O8        1.0000    0.29870   0.48320   0.23780   Biso      1.000     O          -0.133205           
         O9        1.0000    0.38530   0.00160   0.54590   Biso      1.000     O          -0.771777           
         O10       1.0000    0.22580   0.33140   0.09120   Biso      1.000     O          -0.762622           
         O11       1.0000    0.37570   0.21070   0.85190   Biso      1.000     O          -0.661161           
         O12       1.0000    0.76250   0.96290   0.73060   Biso      1.000     O          -0.114249           
         O13       1.0000    0.93790   0.04840   0.87340   Biso      1.000     O          -0.64083  
         O14       1.0000    0.15700   0.32520   0.92850   Biso      1.000     O          -0.677739           
         O15       1.0000    0.60030   0.37430   0.97260   Biso      1.000     O          -0.709557           
         O16       1.0000    0.22630   0.16460   0.91370   Biso      1.000     O          -0.7047869999999999           
         O17       1.0000    0.85530   0.12250   0.03950   Biso      1.000     O          -0.688347           
         O18       1.0000    0.84280   0.35850   0.94640   Biso      1.000     O          -0.183444           
         O19       1.0000    0.61370   0.13850   0.06630   Biso      1.000     O          -0.200743           
         O20       1.0000    0.99550   0.25050   0.96520   Biso      1.000     O          -0.6469590000000001           
         O21       1.0000    0.50090   0.37800   0.71080   Biso      1.000     O          -0.5666770000000001           
         O22       1.0000    0.92630   0.92050   0.88620   Biso      1.000     O          -0.6913779999999999           
         O23       1.0000    0.30410   0.17990   0.08820   Biso      1.000     O          -0.634908           
         O24       1.0000    0.46290   0.23990   0.03790   Biso      1.000     O          -0.725904           
         O25       1.0000    0.15720   0.64150   0.05360   Biso      1.000     O          -0.18344000000000002          
         O26       1.0000    0.39140   0.71150   0.38400   Biso      1.000     O          -0.753376           
         O27       1.0000    0.55520   0.88010   0.53610   Biso      1.000     O          -0.647877           
         O28       1.0000    0.44480   0.11990   0.46390   Biso      1.000     O          -0.647877           
         O29       1.0000    0.77370   0.83540   0.08630   Biso      1.000     O          -0.7047869999999999           
         O30       1.0000    0.39970   0.62570   0.02740   Biso      1.000     O          -0.709558           
         O31       1.0000    0.84300   0.67480   0.07150   Biso      1.000     O          -0.67774  
         O32       1.0000    0.06210   0.95160   0.12660   Biso      1.000     O          -0.64083  
         O33       1.0000    0.23750   0.03710   0.26940   Biso      1.000     O          -0.114249           
         O34       1.0000    0.62430   0.78930   0.14810   Biso      1.000     O          -0.661161           
         O35       1.0000    0.77420   0.66860   0.90880   Biso      1.000     O          -0.7626229999999999           
         O36       1.0000    0.61470   0.99840   0.45410   Biso      1.000     O          -0.771777           
         O37       1.0000    0.70130   0.51680   0.76220   Biso      1.000     O          -0.133199           
         O38       1.0000    0.49910   0.62200   0.28920   Biso      1.000     O          -0.5666760000000001           
         O39       1.0000    0.92000   0.72530   0.85000   Biso      1.000     O          -0.615346           
         O40       1.0000    0.37220   0.50230   0.05060   Biso      1.000     O          -0.7204109999999999           
         O41       1.0000    0.00450   0.74950   0.03480   Biso      1.000     O          -0.6469590000000001           
         O42       1.0000    0.69270   0.94260   0.29580   Biso      1.000     O          -0.146025           
         O43       1.0000    0.07370   0.07950   0.11380   Biso      1.000     O          -0.6913779999999999           
         O44       1.0000    0.69590   0.82010   0.91180   Biso      1.000     O          -0.634908           
         O45       1.0000    0.36950   0.97860   0.36320   Biso      1.000     O          -0.707358           
         O46       1.0000    0.72740   0.13520   0.49410   Biso      1.000     O          -0.588409           
         O47       1.0000    0.53710   0.76010   0.96210   Biso      1.000     O          -0.725904           
         O48       1.0000    0.18040   0.00880   0.95060   Biso      1.000     O          -0.656347           
         O49       1.0000    0.38630   0.86150   0.93370   Biso      1.000     O          -0.200739           
         O50       1.0000    0.81960   0.99120   0.04940   Biso      1.000     O          -0.656346           
         Pr1       1.0000    0.56270   0.13323   0.59407   Biso      1.000     Pr          2.17558   
         Pr2       1.0000    0.62751   0.65691   0.00570   Biso      1.000     Pr          2.2199009999999997  
         Pr3       1.0000    0.91637   0.85941   0.98825   Biso      1.000     Pr          2.233572  
         Pr4       1.0000    0.43730   0.86677   0.40593   Biso      1.000     Pr          2.17558   
         Pr5       1.0000    0.37249   0.34309   0.99430   Biso      1.000     Pr          2.2199009999999997  
         Pr6       1.0000    0.08363   0.14059   0.01175   Biso      1.000     Pr          2.233572 