
##########################################################################
#               Crystallographic Information Format file
#               Produced by PyCifRW module
#
#  This is a CIF file.  CIF has been adopted by the International
#  Union of Crystallography as the standard for data archiving and
#  transmission.
#
#  For information on this file format, follow the CIF links at
#  http://www.iucr.org
##########################################################################

data_image0

_cell_length_a                          7.79
_cell_length_b                          21.487
_cell_length_c                          20.666
_cell_angle_alpha                       90
_cell_angle_beta                        90
_cell_angle_gamma                       90
_symmetry_space_group_name_H-M          'P 1'
_symmetry_int_tables_number             1
loop_
  _symmetry_equiv_pos_as_xyz
         'x, y, z' 
loop_
  _atom_site_label
  _atom_site_occupancy
  _atom_site_fract_x
  _atom_site_fract_y
  _atom_site_fract_z
  _atom_site_thermal_displace_type
  _atom_site_B_iso_or_equiv
  _atom_site_type_symbol
  _atom_site_charge
         C1        1.0000    0.43840   0.62982   0.64798   Biso      1.000     C          -0.506483           
         C2        1.0000    0.47220   0.12141   0.50968   Biso      1.000     C          -0.508559           
         C3        1.0000    0.06840   0.27589   0.88509   Biso      1.000     C          0.090691  
         C4        1.0000    0.01370   0.81864   0.45112   Biso      1.000     C          -0.517427           
         C5        1.0000    0.66730   0.10529   0.03708   Biso      1.000     C          -0.511786           
         C6        1.0000    0.88280   0.76746   0.76884   Biso      1.000     C          0.092437  
         C7        1.0000    0.16450   0.20205   0.20579   Biso      1.000     C          -0.506908           
         C8        1.0000    0.33270   0.89471   0.53708   Biso      1.000     C          -0.511786           
         C9        1.0000    0.45260   0.43429   0.05342   Biso      1.000     C          0.091083  
         C10       1.0000    0.42050   0.54009   0.13287   Biso      1.000     C          0.092257  
         C11       1.0000    0.11260   0.19822   0.32552   Biso      1.000     C          -0.138359           
         C12       1.0000    0.52540   0.48025   0.22894   Biso      1.000     C          0.662923  
         C13       1.0000    0.83780   0.62955   0.32485   Biso      1.000     C          0.599229  
         C14       1.0000    0.54740   0.93429   0.05342   Biso      1.000     C          0.091083  
         C15       1.0000    0.42050   0.95991   0.63287   Biso      1.000     C          0.092257  
         C16       1.0000    0.32850   0.49371   0.95987   Biso      1.000     C          0.651194  
         C17       1.0000    0.59650   0.09629   0.17674   Biso      1.000     C          -0.510895           
         C18       1.0000    0.16220   0.12955   0.32485   Biso      1.000     C          0.599229  
         C19       1.0000    0.94090   0.68511   0.44551   Biso      1.000     C          -0.503578           
         C20       1.0000    0.88280   0.73254   0.26884   Biso      1.000     C          0.092437  
         C21       1.0000    0.60610   0.99055   0.02827   Biso      1.000     C          -0.208259           
         C22       1.0000    0.47560   0.01699   0.65837   Biso      1.000     C          -0.151358           
         C23       1.0000    0.05910   0.18511   0.44551   Biso      1.000     C          -0.503578           
         C24       1.0000    0.97180   0.71209   0.88760   Biso      1.000     C          0.073289  
         C25       1.0000    0.45260   0.06571   0.55342   Biso      1.000     C          0.091083  
         C26       1.0000    0.06840   0.22411   0.38509   Biso      1.000     C          0.090693  
         C27       1.0000    0.57950   0.04009   0.13287   Biso      1.000     C          0.092257  
         C28       1.0000    0.43840   0.87018   0.14798   Biso      1.000     C          -0.506482           
         C29       1.0000    0.94090   0.81489   0.94551   Biso      1.000     C          -0.503578           
         C30       1.0000    0.49560   0.06898   0.61933   Biso      1.000     C          0.085385  
         C31       1.0000    0.47560   0.48301   0.15837   Biso      1.000     C          -0.151358           
         C32       1.0000    0.02820   0.21209   0.88760   Biso      1.000     C          0.073289  
         C33       1.0000    0.57950   0.45991   0.63287   Biso      1.000     C          0.092257  
         C34       1.0000    0.38230   0.95579   0.56706   Biso      1.000     C          0.081639  
         C35       1.0000    0.39390   0.00945   0.52827   Biso      1.000     C          -0.208258           
         C36       1.0000    0.67150   0.99371   0.95987   Biso      1.000     C          0.651194  
         C37       1.0000    0.32850   0.00629   0.45987   Biso      1.000     C          0.651194  
         C38       1.0000    0.97180   0.78791   0.38760   Biso      1.000     C          0.073289  
         C39       1.0000    0.96150   0.11172   0.83197   Biso      1.000     C          0.631158  
         C40       1.0000    0.16220   0.37045   0.82485   Biso      1.000     C          0.599229  
         C41       1.0000    0.03850   0.88828   0.33197   Biso      1.000     C          0.631158  
         C42       1.0000    0.93160   0.72411   0.38509   Biso      1.000     C          0.090691  
         C43       1.0000    0.02810   0.17778   0.83029   Biso      1.000     C          -0.217992           
         C44       1.0000    0.92920   0.83546   0.21085   Biso      1.000     C          -0.504715           
         C45       1.0000    0.83550   0.79795   0.70579   Biso      1.000     C          -0.506908           
         C46       1.0000    0.02810   0.32222   0.33029   Biso      1.000     C          -0.217992           
         C47       1.0000    0.40350   0.90371   0.67674   Biso      1.000     C          -0.510895           
         C48       1.0000    0.88740   0.69822   0.32552   Biso      1.000     C          -0.138356           
         C49       1.0000    0.83550   0.70205   0.20579   Biso      1.000     C          -0.506908           
         C50       1.0000    0.92920   0.66454   0.71085   Biso      1.000     C          -0.504715           
         C51       1.0000    0.52780   0.87859   0.00968   Biso      1.000     C          -0.508559           
         C52       1.0000    0.47220   0.37859   0.00968   Biso      1.000     C          -0.508559           
         C53       1.0000    0.88740   0.80178   0.82552   Biso      1.000     C          -0.138358           
         C54       1.0000    0.52540   0.01975   0.72894   Biso      1.000     C          0.662923  
         C55       1.0000    0.01370   0.68136   0.95112   Biso      1.000     C          -0.517427           
         C56       1.0000    0.05910   0.31489   0.94551   Biso      1.000     C          -0.503578           
         C57       1.0000    0.66730   0.39471   0.53708   Biso      1.000     C          -0.511786           
         C58       1.0000    0.03850   0.61172   0.83197   Biso      1.000     C          0.631158  
         C59       1.0000    0.16450   0.29795   0.70579   Biso      1.000     C          -0.506908           
         C60       1.0000    0.61770   0.04421   0.06706   Biso      1.000     C          0.08164   
         C61       1.0000    0.11720   0.23254   0.26884   Biso      1.000     C          0.092438  
         C62       1.0000    0.92660   0.79648   0.27085   Biso      1.000     C          0.091622  
         C63       1.0000    0.96150   0.38828   0.33197   Biso      1.000     C          0.631158  
         C64       1.0000    0.11260   0.30178   0.82552   Biso      1.000     C          -0.138356           
         C65       1.0000    0.47460   0.98025   0.22894   Biso      1.000     C          0.662923  
         C66       1.0000    0.97190   0.82222   0.33029   Biso      1.000     C          -0.217991           
         C67       1.0000    0.02820   0.28791   0.38760   Biso      1.000     C          0.073289  
         C68       1.0000    0.47460   0.51975   0.72894   Biso      1.000     C          0.662923  
         C69       1.0000    0.52780   0.62141   0.50968   Biso      1.000     C          -0.508559           
         C70       1.0000    0.50440   0.93102   0.11933   Biso      1.000     C          0.085383  
         C71       1.0000    0.98630   0.18136   0.95112   Biso      1.000     C          -0.517427           
         C72       1.0000    0.52440   0.98301   0.15837   Biso      1.000     C          -0.151355           
         C73       1.0000    0.52440   0.51699   0.65837   Biso      1.000     C          -0.151358           
         C74       1.0000    0.07080   0.33546   0.21085   Biso      1.000     C          -0.504715           
         C75       1.0000    0.38230   0.54421   0.06706   Biso      1.000     C          0.081639  
         C76       1.0000    0.92660   0.70352   0.77085   Biso      1.000     C          0.091622  
         C77       1.0000    0.54740   0.56571   0.55342   Biso      1.000     C          0.091083  
         C78       1.0000    0.60610   0.50945   0.52827   Biso      1.000     C          -0.208259           
         C79       1.0000    0.33270   0.60529   0.03708   Biso      1.000     C          -0.511786           
         C80       1.0000    0.11720   0.26746   0.76884   Biso      1.000     C          0.092438  
         C81       1.0000    0.07340   0.20352   0.77085   Biso      1.000     C          0.091622  
         C82       1.0000    0.97190   0.67778   0.83029   Biso      1.000     C          -0.217991           
         C83       1.0000    0.07080   0.16454   0.71085   Biso      1.000     C          -0.504715           
         C84       1.0000    0.98630   0.31864   0.45112   Biso      1.000     C          -0.517427           
         C85       1.0000    0.67150   0.50629   0.45987   Biso      1.000     C          0.651194  
         C86       1.0000    0.59650   0.40371   0.67674   Biso      1.000     C          -0.510894           
         C87       1.0000    0.56160   0.12982   0.64798   Biso      1.000     C          -0.506482           
         C88       1.0000    0.40350   0.59629   0.17674   Biso      1.000     C          -0.510894           
         C89       1.0000    0.39390   0.49055   0.02827   Biso      1.000     C          -0.208258           
         C90       1.0000    0.56160   0.37018   0.14798   Biso      1.000     C          -0.506483           
         C91       1.0000    0.61770   0.45579   0.56706   Biso      1.000     C          0.08164   
         C92       1.0000    0.07340   0.29648   0.27085   Biso      1.000     C          0.091623  
         C93       1.0000    0.50440   0.56898   0.61933   Biso      1.000     C          0.085385  
         C94       1.0000    0.83780   0.87045   0.82485   Biso      1.000     C          0.599229  
         C95       1.0000    0.49560   0.43102   0.11933   Biso      1.000     C          0.085385  
         C96       1.0000    0.93160   0.77589   0.88509   Biso      1.000     C          0.090693  
         Cd1       1.0000    0.20400   0.49736   0.83623   Biso      1.000     Cd          0.967351  
         Cd2       1.0000    0.20400   0.00264   0.33623   Biso      1.000     Cd          0.967351  
         Cd3       1.0000    0.79600   0.99736   0.83623   Biso      1.000     Cd          0.967351  
         Cd4       1.0000    0.32299   0.45606   0.37288   Biso      1.000     Cd          1.140657  
         Cd5       1.0000    0.79600   0.50264   0.33623   Biso      1.000     Cd          0.967351  
         Cd6       1.0000    0.32299   0.04394   0.87288   Biso      1.000     Cd          1.140657  
         Cd7       1.0000    0.67701   0.54394   0.87288   Biso      1.000     Cd          1.140657  
         Cd8       1.0000    0.67701   0.95606   0.37288   Biso      1.000     Cd          1.140657  
         H1        1.0000    0.96160   0.87730   0.22170   Biso      1.000     H          0.168173  
         H2        1.0000    0.53410   0.41090   0.71610   Biso      1.000     H          0.173305  
         H3        1.0000    0.01050   0.81850   0.18080   Biso      1.000     H          0.164729  
         H4        1.0000    0.86300   0.79860   0.97730   Biso      1.000     H          0.156861  
         H5        1.0000    0.01050   0.68150   0.68080   Biso      1.000     H          0.164729  
         H6        1.0000    0.03840   0.12270   0.72170   Biso      1.000     H          0.168173  
         H7        1.0000    0.44930   0.86770   0.65530   Biso      1.000     H          0.159941  
         H8        1.0000    0.26270   0.27740   0.68760   Biso      1.000     H          0.15927   
         H9        1.0000    0.58490   0.11630   0.00450   Biso      1.000     H          0.151577  
         H10       1.0000    0.53410   0.08910   0.21610   Biso      1.000     H          0.173305  
         H11       1.0000    0.08240   0.31470   0.47990   Biso      1.000     H          0.161429  
         H12       1.0000    0.40120   0.15470   0.52520   Biso      1.000     H          0.163621  
         H13       1.0000    0.40120   0.34530   0.02520   Biso      1.000     H          0.163621  
         H14       1.0000    0.11230   0.79890   0.47000   Biso      1.000     H          0.171826  
         H15       1.0000    0.28460   0.89690   0.68660   Biso      1.000     H          0.175594  
         H16       1.0000    0.81700   0.66440   0.69160   Biso      1.000     H          0.165977  
         H17       1.0000    0.41690   0.62440   0.69340   Biso      1.000     H          0.168728  
         H18       1.0000    0.66990   0.36310   0.56990   Biso      1.000     H          0.166401  
         H19       1.0000    0.09020   0.14300   0.43540   Biso      1.000     H          0.167788  
         H20       1.0000    0.90980   0.85700   0.93540   Biso      1.000     H          0.167788  
         H21       1.0000    0.09020   0.35700   0.93540   Biso      1.000     H          0.167788  
         H22       1.0000    0.22110   0.89840   0.51770   Biso      1.000     H          0.165967  
         H23       1.0000    0.05570   0.68610   0.46240   Biso      1.000     H          0.163251  
         H24       1.0000    0.98950   0.31850   0.18080   Biso      1.000     H          0.164729  
         H25       1.0000    0.73730   0.77740   0.68760   Biso      1.000     H          0.15927   
         H26       1.0000    0.41690   0.87560   0.19340   Biso      1.000     H          0.168728  
         H27       1.0000    0.06970   0.29500   0.67630   Biso      1.000     H          0.160303  
         H28       1.0000    0.59000   0.13460   0.50950   Biso      1.000     H          0.165762  
         H29       1.0000    0.94430   0.31390   0.96240   Biso      1.000     H          0.163251  
         H30       1.0000    0.41000   0.63460   0.50950   Biso      1.000     H          0.165762  
         H31       1.0000    0.58490   0.38370   0.50450   Biso      1.000     H          0.151576  
         H32       1.0000    0.08240   0.18530   0.97990   Biso      1.000     H          0.161428  
         H33       1.0000    0.41510   0.61630   0.00450   Biso      1.000     H          0.151576  
         H34       1.0000    0.33010   0.86310   0.56990   Biso      1.000     H          0.166401  
         H35       1.0000    0.46590   0.91090   0.71610   Biso      1.000     H          0.173305  
         H36       1.0000    0.47710   0.33820   0.14200   Biso      1.000     H          0.158469  
         H37       1.0000    0.18300   0.33560   0.19160   Biso      1.000     H          0.165977  
         H38       1.0000    0.43810   0.11040   0.46650   Biso      1.000     H          0.169851  
         H39       1.0000    0.03840   0.37730   0.22170   Biso      1.000     H          0.168173  
         H40       1.0000    0.91760   0.81470   0.47990   Biso      1.000     H          0.161429  
         H41       1.0000    0.19130   0.15900   0.21320   Biso      1.000     H          0.172479  
         H42       1.0000    0.71540   0.10310   0.18660   Biso      1.000     H          0.175594  
         H43       1.0000    0.06970   0.20500   0.17630   Biso      1.000     H          0.160303  
         H44       1.0000    0.80870   0.84100   0.71320   Biso      1.000     H          0.172479  
         H45       1.0000    0.77890   0.10160   0.01770   Biso      1.000     H          0.165967  
         H46       1.0000    0.93030   0.70500   0.17630   Biso      1.000     H          0.160303  
         H47       1.0000    0.80870   0.65900   0.21320   Biso      1.000     H          0.172479  
         H48       1.0000    0.88770   0.20110   0.97000   Biso      1.000     H          0.171825  
         H49       1.0000    0.94430   0.18610   0.46240   Biso      1.000     H          0.163251  
         H50       1.0000    0.11230   0.70110   0.97000   Biso      1.000     H          0.171826  
         H51       1.0000    0.13700   0.20140   0.47730   Biso      1.000     H          0.15686   
         H52       1.0000    0.33390   0.85840   0.12660   Biso      1.000     H          0.163705  
         H53       1.0000    0.96160   0.62270   0.72170   Biso      1.000     H          0.168173  
         H54       1.0000    0.71540   0.39690   0.68660   Biso      1.000     H          0.175594  
         H55       1.0000    0.56190   0.61040   0.46650   Biso      1.000     H          0.169851  
         H56       1.0000    0.52290   0.66180   0.64200   Biso      1.000     H          0.158469  
         H57       1.0000    0.56190   0.88960   0.96650   Biso      1.000     H          0.169851  
         H58       1.0000    0.58310   0.12440   0.69340   Biso      1.000     H          0.168728  
         H59       1.0000    0.66990   0.13690   0.06990   Biso      1.000     H          0.166401  
         H60       1.0000    0.59880   0.65470   0.52520   Biso      1.000     H          0.163621  
         H61       1.0000    0.73730   0.72260   0.18760   Biso      1.000     H          0.15927   
         H62       1.0000    0.66610   0.35840   0.12660   Biso      1.000     H          0.163705  
         H63       1.0000    0.96210   0.36190   0.44400   Biso      1.000     H          0.146423  
         H64       1.0000    0.33390   0.64160   0.62660   Biso      1.000     H          0.163705  
         H65       1.0000    0.41000   0.86540   0.00950   Biso      1.000     H          0.165762  
         H66       1.0000    0.22110   0.60160   0.01770   Biso      1.000     H          0.165967  
         H67       1.0000    0.59000   0.36540   0.00950   Biso      1.000     H          0.165762  
         H68       1.0000    0.33010   0.63690   0.06990   Biso      1.000     H          0.166401  
         H69       1.0000    0.90980   0.64300   0.43540   Biso      1.000     H          0.167788  
         H70       1.0000    0.18300   0.16440   0.69160   Biso      1.000     H          0.165977  
         H71       1.0000    0.91760   0.68530   0.97990   Biso      1.000     H          0.161428  
         H72       1.0000    0.19130   0.34100   0.71320   Biso      1.000     H          0.172479  
         H73       1.0000    0.77890   0.39840   0.51770   Biso      1.000     H          0.165967  
         H74       1.0000    0.88770   0.29890   0.47000   Biso      1.000     H          0.171825  
         H75       1.0000    0.05570   0.81390   0.96240   Biso      1.000     H          0.163251  
         H76       1.0000    0.55070   0.13230   0.15530   Biso      1.000     H          0.159941  
         H77       1.0000    0.58310   0.37560   0.19340   Biso      1.000     H          0.168728  
         H78       1.0000    0.03790   0.86190   0.44400   Biso      1.000     H          0.146423  
         H79       1.0000    0.55070   0.36770   0.65530   Biso      1.000     H          0.159941  
         H80       1.0000    0.43810   0.38960   0.96650   Biso      1.000     H          0.169851  
         H81       1.0000    0.96210   0.13810   0.94400   Biso      1.000     H          0.146423  
         H82       1.0000    0.03790   0.63810   0.94400   Biso      1.000     H          0.146423  
         H83       1.0000    0.98950   0.18150   0.68080   Biso      1.000     H          0.164729  
         H84       1.0000    0.28460   0.60310   0.18660   Biso      1.000     H          0.175594  
         H85       1.0000    0.41510   0.88370   0.50450   Biso      1.000     H          0.151576  
         H86       1.0000    0.26270   0.22260   0.18760   Biso      1.000     H          0.15927   
         H87       1.0000    0.86300   0.70140   0.47730   Biso      1.000     H          0.15686   
         H88       1.0000    0.46590   0.58910   0.21610   Biso      1.000     H          0.173305  
         H89       1.0000    0.47710   0.16180   0.64200   Biso      1.000     H          0.158469  
         H90       1.0000    0.93030   0.79500   0.67630   Biso      1.000     H          0.160303  
         H91       1.0000    0.13700   0.29860   0.97730   Biso      1.000     H          0.15686   
         H92       1.0000    0.66610   0.14160   0.62660   Biso      1.000     H          0.163705  
         H93       1.0000    0.52290   0.83820   0.14200   Biso      1.000     H          0.158469  
         H94       1.0000    0.44930   0.63230   0.15530   Biso      1.000     H          0.159941  
         H95       1.0000    0.81700   0.83560   0.19160   Biso      1.000     H          0.165977  
         H96       1.0000    0.59880   0.84530   0.02520   Biso      1.000     H          0.16362   
         O1        1.0000    0.17460   0.01812   0.45030   Biso      1.000     O          -0.495533           
         O2        1.0000    0.94300   0.56490   0.83536   Biso      1.000     O          -0.584114           
         O3        1.0000    0.67390   0.49846   0.24063   Biso      1.000     O          -0.544119           
         O4        1.0000    0.68520   0.88508   0.83374   Biso      1.000     O          -0.572072           
         O5        1.0000    0.05700   0.43510   0.33536   Biso      1.000     O          -0.584114           
         O6        1.0000    0.57260   0.49367   0.41330   Biso      1.000     O          -0.617867           
         O7        1.0000    0.04330   0.08983   0.31661   Biso      1.000     O          -0.593632           
         O8        1.0000    0.17460   0.48188   0.95030   Biso      1.000     O          -0.495533           
         O9        1.0000    0.82540   0.51812   0.45030   Biso      1.000     O          -0.495533           
         O10       1.0000    0.94300   0.93510   0.33536   Biso      1.000     O          -0.584114           
         O11       1.0000    0.42000   0.45989   0.26844   Biso      1.000     O          -0.60028  
         O12       1.0000    0.80320   0.39519   0.32940   Biso      1.000     O          -0.498414           
         O13       1.0000    0.58000   0.95989   0.26844   Biso      1.000     O          -0.60028  
         O14       1.0000    0.68520   0.61492   0.33374   Biso      1.000     O          -0.572072           
         O15       1.0000    0.42000   0.04011   0.76844   Biso      1.000     O          -0.60028  
         O16       1.0000    0.31480   0.38508   0.83374   Biso      1.000     O          -0.572072           
         O17       1.0000    0.19680   0.60481   0.82940   Biso      1.000     O          -0.498414           
         O18       1.0000    0.42740   0.99367   0.41330   Biso      1.000     O          -0.617867           
         O19       1.0000    0.58000   0.54011   0.76844   Biso      1.000     O          -0.60028  
         O20       1.0000    0.19680   0.89519   0.32940   Biso      1.000     O          -0.498414           
         O21       1.0000    0.67390   0.00154   0.74063   Biso      1.000     O          -0.544119           
         O22       1.0000    0.80320   0.10481   0.82940   Biso      1.000     O          -0.498414           
         O23       1.0000    0.04330   0.41017   0.81661   Biso      1.000     O          -0.593632           
         O24       1.0000    0.82540   0.98188   0.95030   Biso      1.000     O          -0.495533           
         O25       1.0000    0.05700   0.06490   0.83536   Biso      1.000     O          -0.584114           
         O26       1.0000    0.95670   0.91017   0.81661   Biso      1.000     O          -0.593632           
         O27       1.0000    0.31480   0.11492   0.33374   Biso      1.000     O          -0.572072           
         O28       1.0000    0.57260   0.00633   0.91330   Biso      1.000     O          -0.617867           
         O29       1.0000    0.95670   0.58983   0.31661   Biso      1.000     O          -0.593632           
         O30       1.0000    0.42740   0.50633   0.91330   Biso      1.000     O          -0.617867           
         O31       1.0000    0.32610   0.50154   0.74063   Biso      1.000     O          -0.544119           
         O32       1.0000    0.32610   0.99846   0.24063   Biso      1.000     O          -0.544119 