
##########################################################################
#               Crystallographic Information Format file
#               Produced by PyCifRW module
#
#  This is a CIF file.  CIF has been adopted by the International
#  Union of Crystallography as the standard for data archiving and
#  transmission.
#
#  For information on this file format, follow the CIF links at
#  http://www.iucr.org
##########################################################################

data_image0

_cell_length_a                          6.7017
_cell_length_b                          14.3958
_cell_length_c                          14.9405
_cell_angle_alpha                       90
_cell_angle_beta                        90
_cell_angle_gamma                       90
_symmetry_space_group_name_H-M          'P 1'
_symmetry_int_tables_number             1
loop_
  _symmetry_equiv_pos_as_xyz
         'x, y, z' 
loop_
  _atom_site_label
  _atom_site_occupancy
  _atom_site_fract_x
  _atom_site_fract_y
  _atom_site_fract_z
  _atom_site_thermal_displace_type
  _atom_site_B_iso_or_equiv
  _atom_site_type_symbol
  _atom_site_charge
         C1        1.0000    0.62750   0.59147   0.19253   Biso      1.000     C          0.05969   
         C2        1.0000    0.62540   0.55133   0.03344   Biso      1.000     C          -0.152605           
         C3        1.0000    0.62500   0.64334   0.01151   Biso      1.000     C          -0.091868           
         C4        1.0000    0.86320   0.64910   0.57878   Biso      1.000     C          0.635885  
         C5        1.0000    0.86560   0.57299   0.64792   Biso      1.000     C          -0.092496           
         C6        1.0000    0.86470   0.59784   0.73556   Biso      1.000     C          -0.124872           
         C7        1.0000    0.88060   0.52986   0.80306   Biso      1.000     C          -0.115695           
         C8        1.0000    0.88090   0.43773   0.78351   Biso      1.000     C          -0.064632           
         C9        1.0000    0.87250   0.40853   0.69253   Biso      1.000     C          0.059694  
         C10       1.0000    0.87220   0.47751   0.62367   Biso      1.000     C          0.047789  
         C11       1.0000    0.60860   0.62988   0.36171   Biso      1.000     C          0.651303  
         C12       1.0000    0.86870   0.31344   0.66638   Biso      1.000     C          -0.146981           
         C13       1.0000    0.87500   0.35666   0.51151   Biso      1.000     C          -0.091885           
         C14       1.0000    0.87460   0.44867   0.53344   Biso      1.000     C          -0.152589           
         C15       1.0000    0.89140   0.37012   0.86171   Biso      1.000     C          0.651303  
         C16       1.0000    0.63680   0.35090   0.07878   Biso      1.000     C          0.635886  
         C17       1.0000    0.63440   0.42701   0.14792   Biso      1.000     C          -0.092496           
         C18       1.0000    0.63530   0.40216   0.23556   Biso      1.000     C          -0.124872           
         C19       1.0000    0.61940   0.47014   0.30306   Biso      1.000     C          -0.115695           
         C20       1.0000    0.61910   0.56227   0.28351   Biso      1.000     C          -0.064631           
         C21       1.0000    0.62950   0.71117   0.07912   Biso      1.000     C          -0.088882           
         C22       1.0000    0.87050   0.28883   0.57912   Biso      1.000     C          -0.08885  
         C23       1.0000    0.13680   0.14910   0.92122   Biso      1.000     C          0.635885  
         C24       1.0000    0.13440   0.07299   0.85208   Biso      1.000     C          -0.092496           
         C25       1.0000    0.13530   0.09784   0.76444   Biso      1.000     C          -0.124873           
         C26       1.0000    0.39140   0.12988   0.13829   Biso      1.000     C          0.651304  
         C27       1.0000    0.37460   0.05133   0.46656   Biso      1.000     C          -0.152605           
         C28       1.0000    0.37500   0.14334   0.48849   Biso      1.000     C          -0.091868           
         C29       1.0000    0.37050   0.21117   0.42088   Biso      1.000     C          -0.088882           
         C30       1.0000    0.36870   0.18656   0.33362   Biso      1.000     C          -0.146953           
         C31       1.0000    0.37220   0.02249   0.37633   Biso      1.000     C          0.047788  
         C32       1.0000    0.37250   0.09147   0.30747   Biso      1.000     C          0.059696  
         C33       1.0000    0.38090   0.06227   0.21649   Biso      1.000     C          -0.064638           
         C34       1.0000    0.38060   0.97014   0.19694   Biso      1.000     C          -0.115689           
         C35       1.0000    0.36470   0.90216   0.26444   Biso      1.000     C          -0.124886           
         C36       1.0000    0.36560   0.92701   0.35208   Biso      1.000     C          -0.092482           
         C37       1.0000    0.36320   0.85090   0.42122   Biso      1.000     C          0.635885  
         C38       1.0000    0.10860   0.87012   0.63829   Biso      1.000     C          0.651304  
         C39       1.0000    0.12540   0.94867   0.96656   Biso      1.000     C          -0.152604           
         C40       1.0000    0.12500   0.85666   0.98849   Biso      1.000     C          -0.091868           
         C41       1.0000    0.12950   0.78883   0.92088   Biso      1.000     C          -0.088882           
         C42       1.0000    0.13130   0.81344   0.83362   Biso      1.000     C          -0.146953           
         C43       1.0000    0.12780   0.97751   0.87633   Biso      1.000     C          0.04779   
         C44       1.0000    0.12750   0.90853   0.80747   Biso      1.000     C          0.059696  
         C45       1.0000    0.11910   0.93773   0.71649   Biso      1.000     C          -0.064638           
         C46       1.0000    0.11940   0.02986   0.69694   Biso      1.000     C          -0.11569  
         C47       1.0000    0.62780   0.52249   0.12367   Biso      1.000     C          0.047792  
         C48       1.0000    0.63130   0.68656   0.16638   Biso      1.000     C          -0.146949           
         Ca1       1.0000    0.86327   0.80386   0.45807   Biso      1.000     Ca          1.447111  
         Ca2       1.0000    0.63673   0.19614   0.95807   Biso      1.000     Ca          1.447111  
         Ca3       1.0000    0.13673   0.30386   0.04193   Biso      1.000     Ca          1.447107  
         Ca4       1.0000    0.36327   0.69614   0.54193   Biso      1.000     Ca          1.447107  
         H1        1.0000    0.37580   0.00690   0.51180   Biso      1.000     H          0.116604  
         H2        1.0000    0.85340   0.66020   0.75120   Biso      1.000     H          0.119325  
         H3        1.0000    0.89130   0.54860   0.86250   Biso      1.000     H          0.11517   
         H4        1.0000    0.86870   0.22630   0.56360   Biso      1.000     H          0.108111  
         H5        1.0000    0.87840   0.33880   0.45170   Biso      1.000     H          0.108354  
         H6        1.0000    0.87580   0.49310   0.48820   Biso      1.000     H          0.116603  
         H7        1.0000    0.64660   0.33980   0.25120   Biso      1.000     H          0.119325  
         H8        1.0000    0.60870   0.45140   0.36250   Biso      1.000     H          0.11517   
         H9        1.0000    0.63510   0.73250   0.21010   Biso      1.000     H          0.112799  
         H10       1.0000    0.63130   0.77370   0.06360   Biso      1.000     H          0.108113  
         H11       1.0000    0.86490   0.26750   0.71010   Biso      1.000     H          0.112801  
         H12       1.0000    0.62420   0.50690   0.98820   Biso      1.000     H          0.116604  
         H13       1.0000    0.62160   0.66120   0.95170   Biso      1.000     H          0.108354  
         H14       1.0000    0.37840   0.16120   0.54830   Biso      1.000     H          0.108352  
         H15       1.0000    0.36870   0.27370   0.43640   Biso      1.000     H          0.108114  
         H16       1.0000    0.36490   0.23250   0.28990   Biso      1.000     H          0.1128    
         H17       1.0000    0.35340   0.83980   0.24880   Biso      1.000     H          0.119326  
         H18       1.0000    0.39130   0.95140   0.13750   Biso      1.000     H          0.11517   
         H19       1.0000    0.12160   0.83880   0.04830   Biso      1.000     H          0.108353  
         H20       1.0000    0.13130   0.72630   0.93640   Biso      1.000     H          0.108114  
         H21       1.0000    0.13510   0.76750   0.78990   Biso      1.000     H          0.1128    
         H22       1.0000    0.10870   0.04860   0.63750   Biso      1.000     H          0.11517   
         H23       1.0000    0.14660   0.16020   0.74880   Biso      1.000     H          0.119326  
         H24       1.0000    0.12420   0.99310   0.01180   Biso      1.000     H          0.116604  
         O1        1.0000    0.50807   0.84347   0.47472   Biso      1.000     O          -0.661311           
         O2        1.0000    0.28126   0.20453   0.92152   Biso      1.000     O          -0.664385           
         O3        1.0000    0.21874   0.79547   0.42152   Biso      1.000     O          -0.664385           
         O4        1.0000    0.99240   0.89130   0.57589   Biso      1.000     O          -0.655445           
         O5        1.0000    0.21720   0.79948   0.64109   Biso      1.000     O          -0.663005           
         O6        1.0000    0.99193   0.15653   0.97472   Biso      1.000     O          -0.661311           
         O7        1.0000    0.49240   0.60870   0.42411   Biso      1.000     O          -0.655444           
         O8        1.0000    0.00807   0.65653   0.52528   Biso      1.000     O          -0.661311           
         O9        1.0000    0.49193   0.34347   0.02528   Biso      1.000     O          -0.661311           
         O10       1.0000    0.78126   0.29547   0.07848   Biso      1.000     O          -0.664385           
         O11       1.0000    0.00760   0.39130   0.92411   Biso      1.000     O          -0.655444           
         O12       1.0000    0.78280   0.29948   0.85891   Biso      1.000     O          -0.663004           
         O13       1.0000    0.71874   0.70453   0.57848   Biso      1.000     O          -0.664385           
         O14       1.0000    0.28280   0.20052   0.14109   Biso      1.000     O          -0.663005           
         O15       1.0000    0.71720   0.70052   0.35891   Biso      1.000     O          -0.663005           
         O16       1.0000    0.50760   0.10870   0.07589   Biso      1.000     O          -0.655445 