
##########################################################################
#               Crystallographic Information Format file
#               Produced by PyCifRW module
#
#  This is a CIF file.  CIF has been adopted by the International
#  Union of Crystallography as the standard for data archiving and
#  transmission.
#
#  For information on this file format, follow the CIF links at
#  http://www.iucr.org
##########################################################################

data_image0

_cell_length_a                          6.8883
_cell_length_b                          14.7074
_cell_length_c                          14.981
_cell_angle_alpha                       90
_cell_angle_beta                        90
_cell_angle_gamma                       90
_symmetry_space_group_name_H-M          'P 1'
_symmetry_int_tables_number             1
loop_
  _symmetry_equiv_pos_as_xyz
         'x, y, z' 
loop_
  _atom_site_label
  _atom_site_occupancy
  _atom_site_fract_x
  _atom_site_fract_y
  _atom_site_fract_z
  _atom_site_thermal_displace_type
  _atom_site_B_iso_or_equiv
  _atom_site_type_symbol
  _atom_site_charge
         C1        1.0000    0.61570   0.97110   0.69920   Biso      1.000     C          -0.116421           
         C2        1.0000    0.14200   0.64592   0.07664   Biso      1.000     C          0.631633  
         C3        1.0000    0.11520   0.40980   0.18850   Biso      1.000     C          0.05876699999999999           
         C4        1.0000    0.13810   0.59500   0.23300   Biso      1.000     C          -0.130383           
         C5        1.0000    0.12090   0.47788   0.12154   Biso      1.000     C          0.04887   
         C6        1.0000    0.13420   0.57018   0.14506   Biso      1.000     C          -0.095862           
         C7        1.0000    0.61210   0.14080   0.99140   Biso      1.000     C          -0.09109500000000001          
         C8        1.0000    0.61170   0.18300   0.83740   Biso      1.000     C          -0.14827200000000001          
         C9        1.0000    0.60930   0.20710   0.92540   Biso      1.000     C          -0.090003           
         C10       1.0000    0.61960   0.05110   0.96930   Biso      1.000     C          -0.15412599999999999          
         C11       1.0000    0.59030   0.12710   0.64180   Biso      1.000     C          0.6491020000000001  
         C12       1.0000    0.60700   0.06130   0.72000   Biso      1.000     C          -0.067759           
         C13       1.0000    0.64200   0.85408   0.92336   Biso      1.000     C          0.631634  
         C14       1.0000    0.61520   0.09020   0.81150   Biso      1.000     C          0.05876900000000001           
         C15       1.0000    0.63810   0.90500   0.76700   Biso      1.000     C          -0.130382           
         C16       1.0000    0.62090   0.02212   0.87846   Biso      1.000     C          0.04887   
         C17       1.0000    0.11570   0.52890   0.30080   Biso      1.000     C          -0.116421           
         C18       1.0000    0.88790   0.85920   0.49140   Biso      1.000     C          -0.09109600000000001          
         C19       1.0000    0.10700   0.43870   0.28000   Biso      1.000     C          -0.067759           
         C20       1.0000    0.11960   0.44890   0.03070   Biso      1.000     C          -0.154137           
         C21       1.0000    0.38790   0.64080   0.50860   Biso      1.000     C          -0.09109600000000001          
         C22       1.0000    0.38830   0.68300   0.66260   Biso      1.000     C          -0.14827200000000001          
         C23       1.0000    0.39070   0.70710   0.57460   Biso      1.000     C          -0.090002           
         C24       1.0000    0.38040   0.55110   0.53070   Biso      1.000     C          -0.15412599999999999          
         C25       1.0000    0.40970   0.62710   0.85820   Biso      1.000     C          0.6491020000000001  
         C26       1.0000    0.39300   0.56130   0.78000   Biso      1.000     C          -0.067762           
         C27       1.0000    0.38430   0.47110   0.80080   Biso      1.000     C          -0.11641900000000001          
         C28       1.0000    0.35800   0.35408   0.57664   Biso      1.000     C          0.631633  
         C29       1.0000    0.38480   0.59020   0.68850   Biso      1.000     C          0.05876900000000001           
         C30       1.0000    0.36190   0.40500   0.73300   Biso      1.000     C          -0.130382           
         C31       1.0000    0.37910   0.52212   0.62154   Biso      1.000     C          0.048869  
         C32       1.0000    0.36580   0.42982   0.64506   Biso      1.000     C          -0.095863           
         C33       1.0000    0.11210   0.35920   0.00860   Biso      1.000     C          -0.09108200000000001          
         C34       1.0000    0.11170   0.31700   0.16260   Biso      1.000     C          -0.14827  
         C35       1.0000    0.10930   0.29290   0.07460   Biso      1.000     C          -0.090004           
         C36       1.0000    0.09030   0.37290   0.35820   Biso      1.000     C          0.6491020000000001  
         C37       1.0000    0.88830   0.81700   0.33740   Biso      1.000     C          -0.14827200000000001          
         C38       1.0000    0.63420   0.92982   0.85494   Biso      1.000     C          -0.095863           
         C39       1.0000    0.88040   0.94890   0.46930   Biso      1.000     C          -0.154125           
         C40       1.0000    0.87910   0.97788   0.37846   Biso      1.000     C          0.048868  
         C41       1.0000    0.86190   0.09500   0.26700   Biso      1.000     C          -0.130383           
         C42       1.0000    0.88480   0.90980   0.31150   Biso      1.000     C          0.058771000000000004          
         C43       1.0000    0.85800   0.14592   0.42336   Biso      1.000     C          0.631633  
         C44       1.0000    0.86580   0.07018   0.35494   Biso      1.000     C          -0.095862           
         C45       1.0000    0.89300   0.93870   0.22000   Biso      1.000     C          -0.067763           
         C46       1.0000    0.90970   0.87290   0.14180   Biso      1.000     C          0.6491020000000001  
         C47       1.0000    0.88430   0.02890   0.19920   Biso      1.000     C          -0.116417           
         C48       1.0000    0.89070   0.79290   0.42540   Biso      1.000     C          -0.090002           
         H1        1.0000    0.89310   0.04700   0.13980   Biso      1.000     H          0.117183  
         H2        1.0000    0.84450   0.15570   0.25160   Biso      1.000     H          0.119914  
         H3        1.0000    0.60890   0.15780   0.05120   Biso      1.000     H          0.106503  
         H4        1.0000    0.87610   0.99230   0.51440   Biso      1.000     H          0.11678   
         H5        1.0000    0.89430   0.73180   0.44120   Biso      1.000     H          0.10911199999999999           
         H6        1.0000    0.88890   0.77200   0.29380   Biso      1.000     H          0.11362699999999999           
         H7        1.0000    0.89110   0.84220   0.55120   Biso      1.000     H          0.106504  
         H8        1.0000    0.65550   0.84430   0.75160   Biso      1.000     H          0.119913  
         H9        1.0000    0.60690   0.95300   0.63980   Biso      1.000     H          0.117184  
         H10       1.0000    0.62390   0.00770   0.01440   Biso      1.000     H          0.11678   
         H11       1.0000    0.60570   0.26820   0.94120   Biso      1.000     H          0.10911199999999999           
         H12       1.0000    0.61110   0.22800   0.79380   Biso      1.000     H          0.11362799999999999           
         H13       1.0000    0.10690   0.54700   0.36020   Biso      1.000     H          0.117184  
         H14       1.0000    0.12390   0.49230   0.98560   Biso      1.000     H          0.116781  
         H15       1.0000    0.15550   0.65570   0.24840   Biso      1.000     H          0.119914  
         H16       1.0000    0.38890   0.72800   0.70620   Biso      1.000     H          0.11362799999999999           
         H17       1.0000    0.39430   0.76820   0.55880   Biso      1.000     H          0.10911300000000002           
         H18       1.0000    0.37610   0.50770   0.48560   Biso      1.000     H          0.11678   
         H19       1.0000    0.39110   0.65780   0.44880   Biso      1.000     H          0.106504  
         H20       1.0000    0.34450   0.34430   0.74840   Biso      1.000     H          0.119914  
         H21       1.0000    0.10890   0.34220   0.94880   Biso      1.000     H          0.106502  
         H22       1.0000    0.11110   0.27200   0.20620   Biso      1.000     H          0.11362799999999999           
         H23       1.0000    0.10570   0.23180   0.05880   Biso      1.000     H          0.10911300000000002           
         H24       1.0000    0.39310   0.45300   0.86020   Biso      1.000     H          0.117185  
         O1        1.0000    0.18370   0.29970   0.35500   Biso      1.000     O          -0.6815939999999999           
         O2        1.0000    0.68370   0.20030   0.64500   Biso      1.000     O          -0.6815939999999999           
         O3        1.0000    0.98620   0.39820   0.42110   Biso      1.000     O          -0.654458           
         O4        1.0000    0.21910   0.29965   0.58034   Biso      1.000     O          -0.669308           
         O5        1.0000    0.49510   0.34749   0.52122   Biso      1.000     O          -0.669338           
         O6        1.0000    0.00490   0.65251   0.02122   Biso      1.000     O          -0.669338           
         O7        1.0000    0.28090   0.70035   0.08034   Biso      1.000     O          -0.669308           
         O8        1.0000    0.48620   0.10180   0.57890   Biso      1.000     O          -0.654459           
         O9        1.0000    0.50490   0.84749   0.97878   Biso      1.000     O          -0.669338           
         O10       1.0000    0.51380   0.60180   0.92110   Biso      1.000     O          -0.654459           
         O11       1.0000    0.01380   0.89820   0.07890   Biso      1.000     O          -0.654459           
         O12       1.0000    0.81630   0.79970   0.14500   Biso      1.000     O          -0.6815939999999999           
         O13       1.0000    0.99510   0.15251   0.47878   Biso      1.000     O          -0.669338           
         O14       1.0000    0.71910   0.20035   0.41966   Biso      1.000     O          -0.669308           
         O15       1.0000    0.31630   0.70030   0.85500   Biso      1.000     O          -0.6815939999999999           
         O16       1.0000    0.78090   0.79965   0.91966   Biso      1.000     O          -0.669308           
         Sr1       1.0000    0.35538   0.19232   0.45336   Biso      1.000     Sr          1.497126  
         Sr2       1.0000    0.14462   0.80768   0.95336   Biso      1.000     Sr          1.497125  
         Sr3       1.0000    0.64462   0.69232   0.04664   Biso      1.000     Sr          1.4971219999999998  
         Sr4       1.0000    0.85538   0.30768   0.54664   Biso      1.000     Sr          1.4971219999999998 