
##########################################################################
#               Crystallographic Information Format file
#               Produced by PyCifRW module
#
#  This is a CIF file.  CIF has been adopted by the International
#  Union of Crystallography as the standard for data archiving and
#  transmission.
#
#  For information on this file format, follow the CIF links at
#  http://www.iucr.org
##########################################################################

data_image0

_cell_length_a                          8.688
_cell_length_b                          18.2186
_cell_length_c                          18.2186
_cell_angle_alpha                       120
_cell_angle_beta                        90
_cell_angle_gamma                       90
_symmetry_space_group_name_H-M          'P 1'
_symmetry_int_tables_number             1
loop_
  _symmetry_equiv_pos_as_xyz
         'x, y, z' 
loop_
  _atom_site_label
  _atom_site_occupancy
  _atom_site_fract_x
  _atom_site_fract_y
  _atom_site_fract_z
  _atom_site_thermal_displace_type
  _atom_site_B_iso_or_equiv
  _atom_site_type_symbol
  _atom_site_charge
         C1        1.0000    0.00493   0.64328   0.18162   Biso      1.000     C          0.640782  
         C2        1.0000    0.30427   0.27282   0.37793   Biso      1.000     C          -0.143003           
         C3        1.0000    0.24177   0.35292   0.28577   Biso      1.000     C          -0.159741           
         C4        1.0000    0.49347   0.47990   0.51425   Biso      1.000     C          -0.127163           
         C5        1.0000    0.35897   0.35658   0.40959   Biso      1.000     C          0.046347  
         C6        1.0000    0.32517   0.39886   0.36303   Biso      1.000     C          0.066123  
         C7        1.0000    0.44147   0.39949   0.48680   Biso      1.000     C          -0.04952  
         C8        1.0000    0.47267   0.35910   0.54059   Biso      1.000     C          0.651311  
         C9        1.0000    0.97267   0.64090   0.45941   Biso      1.000     C          0.651311  
         C10       1.0000    0.04443   0.60468   0.08883   Biso      1.000     C          -0.101533           
         C11       1.0000    0.12933   0.53159   0.05213   Biso      1.000     C          -0.097197           
         C12       1.0000    0.89233   0.69530   0.92770   Biso      1.000     C          -0.095779           
         C13       1.0000    0.86113   0.74180   0.01390   Biso      1.000     C          -0.098654           
         C14       1.0000    0.97093   0.62207   0.89489   Biso      1.000     C          -0.143078           
         C15       1.0000    0.90843   0.71423   0.06715   Biso      1.000     C          -0.158836           
         C16       1.0000    0.16013   0.48575   0.96565   Biso      1.000     C          -0.127349           
         C17       1.0000    0.02563   0.59041   0.94699   Biso      1.000     C          0.045908  
         C18       1.0000    0.99183   0.63697   0.03583   Biso      1.000     C          0.065334  
         C19       1.0000    0.10813   0.51320   0.91269   Biso      1.000     C          -0.049426           
         C20       1.0000    0.13933   0.45941   0.81851   Biso      1.000     C          0.651171  
         C21       1.0000    0.67160   0.81838   0.46166   Biso      1.000     C          0.640357  
         C22       1.0000    0.71110   0.91117   0.51585   Biso      1.000     C          -0.101243           
         C23       1.0000    0.79600   0.94787   0.47946   Biso      1.000     C          -0.09732  
         C24       1.0000    0.55900   0.07230   0.76760   Biso      1.000     C          -0.09508  
         C25       1.0000    0.19447   0.27210   0.25820   Biso      1.000     C          -0.10025  
         C26       1.0000    0.52780   0.98610   0.72790   Biso      1.000     C          -0.100775           
         C27       1.0000    0.22567   0.23240   0.30470   Biso      1.000     C          -0.095946           
         C28       1.0000    0.37777   0.48415   0.39532   Biso      1.000     C          -0.102494           
         C29       1.0000    0.62933   0.46841   0.94787   Biso      1.000     C          -0.097203           
         C30       1.0000    0.39233   0.30470   0.07230   Biso      1.000     C          -0.095779           
         C31       1.0000    0.36113   0.25820   0.98610   Biso      1.000     C          -0.098654           
         C32       1.0000    0.47093   0.37793   0.10511   Biso      1.000     C          -0.143078           
         C33       1.0000    0.40843   0.28577   0.93285   Biso      1.000     C          -0.158836           
         C34       1.0000    0.66013   0.51425   0.03435   Biso      1.000     C          -0.127348           
         C35       1.0000    0.52563   0.40959   0.05301   Biso      1.000     C          0.045908  
         C36       1.0000    0.49183   0.36303   0.96417   Biso      1.000     C          0.065333  
         C37       1.0000    0.60813   0.48680   0.08731   Biso      1.000     C          -0.049426           
         C38       1.0000    0.63933   0.54059   0.18149   Biso      1.000     C          0.651171  
         C39       1.0000    0.17160   0.18162   0.53834   Biso      1.000     C          0.640357  
         C40       1.0000    0.21110   0.08883   0.48415   Biso      1.000     C          -0.101243           
         C41       1.0000    0.29600   0.05213   0.52054   Biso      1.000     C          -0.09732  
         C42       1.0000    0.05900   0.92770   0.23240   Biso      1.000     C          -0.09508  
         C43       1.0000    0.02780   0.01390   0.27210   Biso      1.000     C          -0.100775           
         C44       1.0000    0.13760   0.89489   0.27282   Biso      1.000     C          -0.143589           
         C45       1.0000    0.07510   0.06715   0.35292   Biso      1.000     C          -0.160096           
         C46       1.0000    0.32680   0.96565   0.47990   Biso      1.000     C          -0.127016           
         C47       1.0000    0.19230   0.94699   0.35658   Biso      1.000     C          0.045718  
         C48       1.0000    0.15850   0.03583   0.39886   Biso      1.000     C          0.065924  
         C49       1.0000    0.27480   0.91269   0.39949   Biso      1.000     C          -0.049623           
         C50       1.0000    0.30600   0.81851   0.35910   Biso      1.000     C          0.650701  
         C51       1.0000    0.33827   0.53834   0.35672   Biso      1.000     C          0.641035  
         C52       1.0000    0.46267   0.52054   0.46841   Biso      1.000     C          -0.096961           
         C53       1.0000    0.63760   0.10511   0.72718   Biso      1.000     C          -0.143589           
         C54       1.0000    0.57510   0.93285   0.64708   Biso      1.000     C          -0.160096           
         C55       1.0000    0.82680   0.03435   0.52010   Biso      1.000     C          -0.127016           
         C56       1.0000    0.83827   0.46166   0.64328   Biso      1.000     C          0.641035  
         C57       1.0000    0.87777   0.51585   0.60468   Biso      1.000     C          -0.102494           
         C58       1.0000    0.96267   0.47946   0.53159   Biso      1.000     C          -0.096961           
         C59       1.0000    0.72567   0.76760   0.69530   Biso      1.000     C          -0.095971           
         C60       1.0000    0.69447   0.72790   0.74180   Biso      1.000     C          -0.100257           
         C61       1.0000    0.80427   0.72718   0.62207   Biso      1.000     C          -0.142978           
         C62       1.0000    0.74177   0.64708   0.71423   Biso      1.000     C          -0.159729           
         C63       1.0000    0.99347   0.52010   0.48575   Biso      1.000     C          -0.127163           
         C64       1.0000    0.85897   0.64342   0.59041   Biso      1.000     C          0.046345  
         C65       1.0000    0.82517   0.60114   0.63697   Biso      1.000     C          0.066122  
         C66       1.0000    0.94147   0.60051   0.51320   Biso      1.000     C          -0.04952  
         C67       1.0000    0.54443   0.39532   0.91117   Biso      1.000     C          -0.101527           
         C68       1.0000    0.50493   0.35672   0.81838   Biso      1.000     C          0.640782  
         C69       1.0000    0.69230   0.05301   0.64342   Biso      1.000     C          0.045718  
         C70       1.0000    0.65850   0.96417   0.60114   Biso      1.000     C          0.065924  
         C71       1.0000    0.77480   0.08731   0.60051   Biso      1.000     C          -0.049623           
         C72       1.0000    0.80600   0.18149   0.64090   Biso      1.000     C          0.650701  
         H1        1.0000    0.48973   0.40840   0.16310   Biso      1.000     H          0.116821  
         H2        1.0000    0.52520   0.10770   0.82280   Biso      1.000     H          0.101624  
         H3        1.0000    0.47370   0.96440   0.75690   Biso      1.000     H          0.103534  
         H4        1.0000    0.65640   0.16310   0.75470   Biso      1.000     H          0.117052  
         H5        1.0000    0.55280   0.87530   0.62150   Biso      1.000     H          0.107416  
         H6        1.0000    0.88350   0.05640   0.49230   Biso      1.000     H          0.109435  
         H7        1.0000    0.66803   0.48830   0.91350   Biso      1.000     H          0.108147  
         H8        1.0000    0.71947   0.62150   0.74620   Biso      1.000     H          0.107035  
         H9        1.0000    0.83470   0.91350   0.42520   Biso      1.000     H          0.107607  
         H10       1.0000    0.82307   0.75470   0.59160   Biso      1.000     H          0.116802  
         H11       1.0000    0.64037   0.75690   0.79250   Biso      1.000     H          0.103398  
         H12       1.0000    0.69187   0.82280   0.71510   Biso      1.000     H          0.101759  
         H13       1.0000    0.00137   0.42520   0.51170   Biso      1.000     H          0.107952  
         H14       1.0000    0.05017   0.49230   0.43590   Biso      1.000     H          0.108941  
         H15       1.0000    0.21683   0.43590   0.94360   Biso      1.000     H          0.109298  
         H16       1.0000    0.88613   0.74620   0.12470   Biso      1.000     H          0.106237  
         H17       1.0000    0.98973   0.59160   0.83690   Biso      1.000     H          0.116821  
         H18       1.0000    0.38613   0.25380   0.87530   Biso      1.000     H          0.106237  
         H19       1.0000    0.71683   0.56410   0.05640   Biso      1.000     H          0.109298  
         H20       1.0000    0.33470   0.08650   0.57480   Biso      1.000     H          0.107607  
         H21       1.0000    0.02520   0.89230   0.17720   Biso      1.000     H          0.101624  
         H22       1.0000    0.97370   0.03560   0.24310   Biso      1.000     H          0.103534  
         H23       1.0000    0.15640   0.83690   0.24530   Biso      1.000     H          0.117052  
         H24       1.0000    0.05280   0.12470   0.37850   Biso      1.000     H          0.107416  
         H25       1.0000    0.38350   0.94360   0.50770   Biso      1.000     H          0.109435  
         H26       1.0000    0.50137   0.57480   0.48830   Biso      1.000     H          0.107952  
         H27       1.0000    0.19187   0.17720   0.28490   Biso      1.000     H          0.101757  
         H28       1.0000    0.14037   0.24310   0.20750   Biso      1.000     H          0.103398  
         H29       1.0000    0.35853   0.28490   0.10770   Biso      1.000     H          0.101551  
         H30       1.0000    0.21947   0.37850   0.25380   Biso      1.000     H          0.107036  
         H31       1.0000    0.55017   0.50770   0.56410   Biso      1.000     H          0.108941  
         H32       1.0000    0.16803   0.51170   0.08650   Biso      1.000     H          0.108147  
         H33       1.0000    0.85853   0.71510   0.89230   Biso      1.000     H          0.101551  
         H34       1.0000    0.80703   0.79250   0.03560   Biso      1.000     H          0.102034  
         H35       1.0000    0.30703   0.20750   0.96440   Biso      1.000     H          0.102034  
         H36       1.0000    0.32307   0.24530   0.40840   Biso      1.000     H          0.116804  
         Na1       1.0000    0.82368   0.36165   0.72521   Biso      1.000     Na          0.850002  
         Na2       1.0000    0.98828   0.51105   0.25197   Biso      1.000     Na          0.908007  
         Na3       1.0000    0.15701   0.36356   0.63835   Biso      1.000     Na          0.850157  
         Na4       1.0000    0.15494   0.25197   0.74092   Biso      1.000     Na          0.908114  
         Na5       1.0000    0.49035   0.27479   0.63644   Biso      1.000     Na          0.850134  
         Na6       1.0000    0.48828   0.48895   0.74803   Biso      1.000     Na          0.908007  
         Na7       1.0000    0.82161   0.25908   0.51105   Biso      1.000     Na          0.907958  
         Na8       1.0000    0.32161   0.74092   0.48895   Biso      1.000     Na          0.907958  
         Na9       1.0000    0.65701   0.63644   0.36165   Biso      1.000     Na          0.850157  
         Na10      1.0000    0.65494   0.74803   0.25908   Biso      1.000     Na          0.908114  
         Na11      1.0000    0.99035   0.72521   0.36356   Biso      1.000     Na          0.850134  
         Na12      1.0000    0.32368   0.63835   0.27479   Biso      1.000     Na          0.850002  
         O1        1.0000    0.23340   0.78050   0.39003   Biso      1.000     O          -0.769621           
         O2        1.0000    0.06447   0.70085   0.48498   Biso      1.000     O          -0.68606  
         O3        1.0000    0.90007   0.60997   0.39047   Biso      1.000     O          -0.769768           
         O4        1.0000    0.39893   0.30420   0.78670   Biso      1.000     O          -0.683415           
         O5        1.0000    0.58083   0.38236   0.77665   Biso      1.000     O          -0.794648           
         O6        1.0000    0.73113   0.51502   0.21587   Biso      1.000     O          -0.685585           
         O7        1.0000    0.56673   0.60953   0.21950   Biso      1.000     O          -0.770032           
         O8        1.0000    0.06560   0.21330   0.51750   Biso      1.000     O          -0.683252           
         O9        1.0000    0.24750   0.22335   0.60571   Biso      1.000     O          -0.794356           
         O10       1.0000    0.39780   0.78413   0.29915   Biso      1.000     O          -0.685476           
         O11       1.0000    0.23227   0.51750   0.30420   Biso      1.000     O          -0.683655           
         O12       1.0000    0.08083   0.61764   0.22335   Biso      1.000     O          -0.794648           
         O13       1.0000    0.56447   0.29915   0.51502   Biso      1.000     O          -0.68606  
         O14       1.0000    0.40007   0.39003   0.60953   Biso      1.000     O          -0.769768           
         O15       1.0000    0.89893   0.69580   0.21330   Biso      1.000     O          -0.683415           
         O16       1.0000    0.91417   0.39429   0.61764   Biso      1.000     O          -0.794186           
         O17       1.0000    0.23113   0.48498   0.78413   Biso      1.000     O          -0.685585           
         O18       1.0000    0.06673   0.39047   0.78050   Biso      1.000     O          -0.770032           
         O19       1.0000    0.56560   0.78670   0.48250   Biso      1.000     O          -0.683253           
         O20       1.0000    0.74750   0.77665   0.39429   Biso      1.000     O          -0.794356           
         O21       1.0000    0.89780   0.21587   0.70085   Biso      1.000     O          -0.685476           
         O22       1.0000    0.73340   0.21950   0.60997   Biso      1.000     O          -0.769621           
         O23       1.0000    0.41417   0.60571   0.38236   Biso      1.000     O          -0.794186           
         O24       1.0000    0.73227   0.48250   0.69580   Biso      1.000     O          -0.683655 