
##########################################################################
#               Crystallographic Information Format file
#               Produced by PyCifRW module
#
#  This is a CIF file.  CIF has been adopted by the International
#  Union of Crystallography as the standard for data archiving and
#  transmission.
#
#  For information on this file format, follow the CIF links at
#  http://www.iucr.org
##########################################################################

data_image0

_cell_length_a                          7.1269
_cell_length_b                          14.6724
_cell_length_c                          15.0027
_cell_angle_alpha                       90
_cell_angle_beta                        90
_cell_angle_gamma                       90
_symmetry_space_group_name_H-M          'P 1'
_symmetry_int_tables_number             1
loop_
  _symmetry_equiv_pos_as_xyz
         'x, y, z' 
loop_
  _atom_site_label
  _atom_site_occupancy
  _atom_site_fract_x
  _atom_site_fract_y
  _atom_site_fract_z
  _atom_site_thermal_displace_type
  _atom_site_B_iso_or_equiv
  _atom_site_type_symbol
  _atom_site_charge
         Ba1       1.0000    0.92728   0.19412   0.43903   Biso      1.000     Ba          1.495747  
         Ba2       1.0000    0.57272   0.80588   0.93903   Biso      1.000     Ba          1.495746  
         Ba3       1.0000    0.07272   0.69412   0.06097   Biso      1.000     Ba          1.49574   
         Ba4       1.0000    0.42728   0.30588   0.56097   Biso      1.000     Ba          1.495739  
         C1        1.0000    0.17150   0.03410   0.69530   Biso      1.000     C          -0.065363           
         C2        1.0000    0.16680   0.94110   0.66480   Biso      1.000     C          0.055628  
         C3        1.0000    0.14070   0.87030   0.72890   Biso      1.000     C          0.044989999999999995          
         C4        1.0000    0.10560   0.89340   0.81900   Biso      1.000     C          -0.097604           
         C5        1.0000    0.08400   0.82280   0.89102   Biso      1.000     C          0.617636  
         C6        1.0000    0.71880   0.38530   0.36390   Biso      1.000     C          0.636077  
         C7        1.0000    0.69060   0.58320   0.42630   Biso      1.000     C          -0.151981           
         C8        1.0000    0.66820   0.74150   0.38870   Biso      1.000     C          -0.08976  
         C9        1.0000    0.13900   0.05210   0.78240   Biso      1.000     C          -0.11958800000000001          
         C10       1.0000    0.64420   0.72130   0.30130   Biso      1.000     C          -0.145326           
         C11       1.0000    0.59950   0.51710   0.15570   Biso      1.000     C          -0.13151400000000002          
         C12       1.0000    0.67150   0.46590   0.30470   Biso      1.000     C          -0.065363           
         C13       1.0000    0.66680   0.55890   0.33520   Biso      1.000     C          0.05563099999999999           
         C14       1.0000    0.64070   0.62970   0.27110   Biso      1.000     C          0.044991  
         C15       1.0000    0.68990   0.67200   0.45210   Biso      1.000     C          -0.092693           
         C16       1.0000    0.09950   0.98290   0.84430   Biso      1.000     C          -0.131502           
         C17       1.0000    0.16820   0.75850   0.61130   Biso      1.000     C          -0.08976100000000001          
         C18       1.0000    0.60560   0.60660   0.18100   Biso      1.000     C          -0.097593           
         C19       1.0000    0.28120   0.88530   0.13610   Biso      1.000     C          0.636075  
         C20       1.0000    0.30940   0.08320   0.07370   Biso      1.000     C          -0.15198  
         C21       1.0000    0.31010   0.17200   0.04790   Biso      1.000     C          -0.092701           
         C22       1.0000    0.33180   0.24150   0.11130   Biso      1.000     C          -0.089752           
         C23       1.0000    0.35580   0.22130   0.19870   Biso      1.000     C          -0.145327           
         C24       1.0000    0.40050   0.01710   0.34430   Biso      1.000     C          -0.131512           
         C25       1.0000    0.36100   0.94790   0.28240   Biso      1.000     C          -0.119603           
         C26       1.0000    0.32850   0.96590   0.19530   Biso      1.000     C          -0.065345           
         C27       1.0000    0.33320   0.05890   0.16480   Biso      1.000     C          0.055629  
         C28       1.0000    0.35930   0.12970   0.22890   Biso      1.000     C          0.044991  
         C29       1.0000    0.39440   0.10660   0.31900   Biso      1.000     C          -0.097593           
         C30       1.0000    0.41600   0.17720   0.39102   Biso      1.000     C          0.617636  
         C31       1.0000    0.21880   0.11470   0.63610   Biso      1.000     C          0.6360779999999999  
         C32       1.0000    0.19060   0.91680   0.57370   Biso      1.000     C          -0.151978           
         C33       1.0000    0.18990   0.82800   0.54790   Biso      1.000     C          -0.092692           
         C34       1.0000    0.14420   0.77870   0.69870   Biso      1.000     C          -0.145322           
         C35       1.0000    0.58400   0.67720   0.10898   Biso      1.000     C          0.617636  
         C36       1.0000    0.63900   0.44790   0.21760   Biso      1.000     C          -0.11958599999999998          
         C37       1.0000    0.80940   0.41680   0.92630   Biso      1.000     C          -0.151981           
         C38       1.0000    0.78120   0.61470   0.86390   Biso      1.000     C          0.636077  
         C39       1.0000    0.89440   0.39340   0.68100   Biso      1.000     C          -0.097605           
         C40       1.0000    0.85930   0.37030   0.77110   Biso      1.000     C          0.044989999999999995          
         C41       1.0000    0.83320   0.44110   0.83520   Biso      1.000     C          0.055633  
         C42       1.0000    0.82850   0.53410   0.80470   Biso      1.000     C          -0.065363           
         C43       1.0000    0.91600   0.32280   0.60898   Biso      1.000     C          0.617637  
         C44       1.0000    0.90050   0.48290   0.65570   Biso      1.000     C          -0.131503           
         C45       1.0000    0.85580   0.27870   0.80130   Biso      1.000     C          -0.14534  
         C46       1.0000    0.83180   0.25850   0.88870   Biso      1.000     C          -0.08974299999999999          
         C47       1.0000    0.81010   0.32800   0.95210   Biso      1.000     C          -0.092694           
         C48       1.0000    0.86100   0.55210   0.71760   Biso      1.000     C          -0.11958699999999998          
         H1        1.0000    0.85710   0.61220   0.69810   Biso      1.000     H          0.116898  
         H2        1.0000    0.93080   0.49810   0.59720   Biso      1.000     H          0.120752  
         H3        1.0000    0.87030   0.23170   0.76030   Biso      1.000     H          0.11835999999999999           
         H4        1.0000    0.82970   0.19790   0.90690   Biso      1.000     H          0.10561400000000001           
         H5        1.0000    0.79610   0.31330   0.01210   Biso      1.000     H          0.10859100000000001           
         H6        1.0000    0.79320   0.46230   0.96880   Biso      1.000     H          0.112349  
         H7        1.0000    0.64290   0.38780   0.19810   Biso      1.000     H          0.116899  
         H8        1.0000    0.56920   0.50190   0.09720   Biso      1.000     H          0.120753  
         H9        1.0000    0.62970   0.76830   0.26030   Biso      1.000     H          0.11835899999999999           
         H10       1.0000    0.67030   0.80210   0.40690   Biso      1.000     H          0.10561500000000001           
         H11       1.0000    0.70680   0.53770   0.46880   Biso      1.000     H          0.112349  
         H12       1.0000    0.70390   0.68670   0.51210   Biso      1.000     H          0.10859300000000001           
         H13       1.0000    0.06920   0.99810   0.90280   Biso      1.000     H          0.120751  
         H14       1.0000    0.14290   0.11220   0.80190   Biso      1.000     H          0.116899  
         H15       1.0000    0.29320   0.03770   0.03120   Biso      1.000     H          0.112349  
         H16       1.0000    0.32970   0.30210   0.09310   Biso      1.000     H          0.10561500000000001           
         H17       1.0000    0.37030   0.26830   0.23970   Biso      1.000     H          0.11835999999999999           
         H18       1.0000    0.43080   0.00190   0.40280   Biso      1.000     H          0.120752  
         H19       1.0000    0.29610   0.18670   0.98790   Biso      1.000     H          0.10859300000000001           
         H20       1.0000    0.20680   0.96230   0.53120   Biso      1.000     H          0.112349  
         H21       1.0000    0.20390   0.81330   0.48790   Biso      1.000     H          0.10859100000000001           
         H22       1.0000    0.17030   0.69790   0.59310   Biso      1.000     H          0.105617  
         H23       1.0000    0.12970   0.73170   0.73970   Biso      1.000     H          0.11835999999999999           
         H24       1.0000    0.35710   0.88780   0.30190   Biso      1.000     H          0.116901  
         O1        1.0000    0.20730   0.76184   0.89771   Biso      1.000     O          -0.647946           
         O2        1.0000    0.55370   0.16839   0.44361   Biso      1.000     O          -0.671596           
         O3        1.0000    0.29270   0.23816   0.39771   Biso      1.000     O          -0.647946           
         O4        1.0000    0.15510   0.11620   0.55750   Biso      1.000     O          -0.6933699999999999           
         O5        1.0000    0.31530   0.17550   0.67010   Biso      1.000     O          -0.6259170000000001           
         O6        1.0000    0.94630   0.83161   0.94361   Biso      1.000     O          -0.671596           
         O7        1.0000    0.65510   0.38380   0.44250   Biso      1.000     O          -0.693369           
         O8        1.0000    0.05370   0.33161   0.55639   Biso      1.000     O          -0.671596           
         O9        1.0000    0.44630   0.66839   0.05639   Biso      1.000     O          -0.671596           
         O10       1.0000    0.70730   0.73816   0.10229   Biso      1.000     O          -0.647946           
         O11       1.0000    0.84490   0.61620   0.94250   Biso      1.000     O          -0.693369           
         O12       1.0000    0.68470   0.67550   0.82990   Biso      1.000     O          -0.625918           
         O13       1.0000    0.79270   0.26184   0.60229   Biso      1.000     O          -0.647946           
         O14       1.0000    0.18470   0.82450   0.17010   Biso      1.000     O          -0.6259170000000001           
         O15       1.0000    0.81530   0.32450   0.32990   Biso      1.000     O          -0.625918           
         O16       1.0000    0.34490   0.88380   0.05750   Biso      1.000     O          -0.6933699999999999 