
##########################################################################
#               Crystallographic Information Format file
#               Produced by PyCifRW module
#
#  This is a CIF file.  CIF has been adopted by the International
#  Union of Crystallography as the standard for data archiving and
#  transmission.
#
#  For information on this file format, follow the CIF links at
#  http://www.iucr.org
##########################################################################

data_image0

_cell_length_a                          8.1984
_cell_length_b                          24.094
_cell_length_c                          11.307
_cell_angle_alpha                       90
_cell_angle_beta                        90
_cell_angle_gamma                       90
_symmetry_space_group_name_H-M          'P 1'
_symmetry_int_tables_number             1
loop_
  _symmetry_equiv_pos_as_xyz
         'x, y, z' 
loop_
  _atom_site_label
  _atom_site_occupancy
  _atom_site_fract_x
  _atom_site_fract_y
  _atom_site_fract_z
  _atom_site_thermal_displace_type
  _atom_site_B_iso_or_equiv
  _atom_site_type_symbol
  _atom_site_charge
         C1        1.0000    0.99180   0.15110   0.22180   Biso      1.000     C          0.101626  
         C2        1.0000    0.85850   0.77011   0.84140   Biso      1.000     C          -0.193667           
         C3        1.0000    0.90740   0.81691   0.90410   Biso      1.000     C          0.10751500000000001           
         C4        1.0000    0.00820   0.84890   0.22180   Biso      1.000     C          0.099999  
         C5        1.0000    0.01320   0.84990   0.09990   Biso      1.000     C          -0.183523           
         C6        1.0000    0.90270   0.81871   0.03560   Biso      1.000     C          0.106906  
         C7        1.0000    0.78700   0.78903   0.10010   Biso      1.000     C          -0.19068  
         C8        1.0000    0.79030   0.79042   0.22110   Biso      1.000     C          0.115346  
         C9        1.0000    0.65580   0.00010   0.91930   Biso      1.000     C          0.6968479999999999  
         C10       1.0000    0.86540   0.76965   0.71920   Biso      1.000     C          0.103926  
         C11       1.0000    0.54790   0.80254   0.54060   Biso      1.000     C          0.578684  
         C12       1.0000    0.60420   0.94932   0.66040   Biso      1.000     C          -0.174979           
         C13       1.0000    0.51220   0.94724   0.76320   Biso      1.000     C          0.09887   
         C14       1.0000    0.43620   0.89729   0.79490   Biso      1.000     C          -0.18657100000000001          
         C15       1.0000    0.45120   0.85178   0.72170   Biso      1.000     C          -0.096191           
         C16       1.0000    0.54000   0.85384   0.61720   Biso      1.000     C          -0.06650199999999999          
         C17       1.0000    0.61870   0.90300   0.58720   Biso      1.000     C          -0.003026           
         C18       1.0000    0.93620   0.60271   0.20510   Biso      1.000     C          -0.1865   
         C19       1.0000    0.01220   0.55276   0.23680   Biso      1.000     C          0.10107200000000001           
         C20       1.0000    0.71030   0.91100   0.47120   Biso      1.000     C          0.583868  
         C21       1.0000    0.10420   0.55068   0.33960   Biso      1.000     C          -0.173243           
         C22       1.0000    0.96960   0.85780   0.71590   Biso      1.000     C          0.105032  
         C23       1.0000    0.38130   0.09700   0.58720   Biso      1.000     C          0.000399  
         C24       1.0000    0.03480   0.13896   0.83700   Biso      1.000     C          -0.176573           
         C25       1.0000    0.03040   0.14220   0.71590   Biso      1.000     C          0.10797999999999999           
         C26       1.0000    0.13460   0.23035   0.71920   Biso      1.000     C          0.10618399999999999           
         C27       1.0000    0.14150   0.22989   0.84140   Biso      1.000     C          -0.19444  
         C28       1.0000    0.09260   0.18309   0.90410   Biso      1.000     C          0.108774  
         C29       1.0000    0.95120   0.64822   0.27830   Biso      1.000     C          -0.095551           
         C30       1.0000    0.98680   0.15010   0.09990   Biso      1.000     C          -0.183172           
         C31       1.0000    0.09730   0.18129   0.03560   Biso      1.000     C          0.10625   
         C32       1.0000    0.96520   0.86104   0.83700   Biso      1.000     C          -0.176447           
         C33       1.0000    0.21300   0.21097   0.10010   Biso      1.000     C          -0.190841           
         C34       1.0000    0.34420   0.99990   0.91930   Biso      1.000     C          0.696941  
         C35       1.0000    0.45210   0.19746   0.54060   Biso      1.000     C          0.582248  
         C36       1.0000    0.28970   0.08900   0.47120   Biso      1.000     C          0.583521  
         C37       1.0000    0.39580   0.05068   0.66040   Biso      1.000     C          -0.173684           
         C38       1.0000    0.48780   0.05276   0.76320   Biso      1.000     C          0.100605  
         C39       1.0000    0.56380   0.10271   0.79490   Biso      1.000     C          -0.187136           
         C40       1.0000    0.54880   0.14822   0.72170   Biso      1.000     C          -0.09562899999999999          
         C41       1.0000    0.46000   0.14616   0.61720   Biso      1.000     C          -0.07367  
         C42       1.0000    0.20970   0.20958   0.22110   Biso      1.000     C          0.11725999999999999           
         C43       1.0000    0.21030   0.58900   0.52880   Biso      1.000     C          0.582551  
         C44       1.0000    0.04790   0.69746   0.45940   Biso      1.000     C          0.578425  
         C45       1.0000    0.15580   0.49990   0.08070   Biso      1.000     C          0.696856  
         C46       1.0000    0.00000   0.50000   0.15860   Biso      1.000     C          -0.309442           
         C47       1.0000    0.50000   0.00000   0.84140   Biso      1.000     C          -0.309275           
         C48       1.0000    0.53480   0.36104   0.16300   Biso      1.000     C          -0.176569           
         C49       1.0000    0.53040   0.35780   0.28410   Biso      1.000     C          0.108025  
         C50       1.0000    0.63460   0.26965   0.28080   Biso      1.000     C          0.106049  
         C51       1.0000    0.64150   0.27011   0.15860   Biso      1.000     C          -0.194581           
         C52       1.0000    0.59260   0.31691   0.09590   Biso      1.000     C          0.10878299999999999           
         C53       1.0000    0.49180   0.34890   0.77820   Biso      1.000     C          0.101814  
         C54       1.0000    0.48680   0.34990   0.90010   Biso      1.000     C          -0.183084           
         C55       1.0000    0.59730   0.31871   0.96440   Biso      1.000     C          0.106177  
         C56       1.0000    0.11870   0.59700   0.41280   Biso      1.000     C          0.0018170000000000003         
         C57       1.0000    0.70970   0.29042   0.77890   Biso      1.000     C          0.11716800000000001           
         C58       1.0000    0.84420   0.50010   0.08070   Biso      1.000     C          0.696812  
         C59       1.0000    0.95210   0.30254   0.45940   Biso      1.000     C          0.582322  
         C60       1.0000    0.78970   0.41100   0.52880   Biso      1.000     C          0.583154  
         C61       1.0000    0.71300   0.28903   0.89990   Biso      1.000     C          -0.190914           
         C62       1.0000    0.98780   0.44724   0.23680   Biso      1.000     C          0.100374  
         C63       1.0000    0.29030   0.70958   0.77890   Biso      1.000     C          0.11753599999999999           
         C64       1.0000    0.89580   0.44932   0.33960   Biso      1.000     C          -0.173572           
         C65       1.0000    0.40270   0.68129   0.96440   Biso      1.000     C          0.105966  
         C66       1.0000    0.51320   0.65010   0.90010   Biso      1.000     C          -0.183782           
         C67       1.0000    0.50820   0.65110   0.77820   Biso      1.000     C          0.101435  
         C68       1.0000    0.40740   0.68309   0.09590   Biso      1.000     C          0.108394  
         C69       1.0000    0.35850   0.72989   0.15860   Biso      1.000     C          -0.195461           
         C70       1.0000    0.28700   0.71097   0.89990   Biso      1.000     C          -0.19148199999999999          
         C71       1.0000    0.46960   0.64220   0.28410   Biso      1.000     C          0.106999  
         C72       1.0000    0.36540   0.73035   0.28080   Biso      1.000     C          0.10730999999999999           
         C73       1.0000    0.06380   0.39729   0.20510   Biso      1.000     C          -0.187065           
         C74       1.0000    0.04880   0.35178   0.27830   Biso      1.000     C          -0.095595           
         C75       1.0000    0.04000   0.64616   0.38280   Biso      1.000     C          -0.073112           
         C76       1.0000    0.88130   0.40300   0.41280   Biso      1.000     C          0.0007019999999999999         
         C77       1.0000    0.46520   0.63896   0.16300   Biso      1.000     C          -0.177489           
         C78       1.0000    0.96000   0.35384   0.38280   Biso      1.000     C          -0.073588           
         F1        1.0000    0.67550   0.95036   0.97190   Biso      1.000     F          -0.217594           
         F2        1.0000    0.78850   0.01029   0.85690   Biso      1.000     F          -0.190255           
         F3        1.0000    0.32450   0.04964   0.97190   Biso      1.000     F          -0.217579           
         F4        1.0000    0.21150   0.98971   0.85690   Biso      1.000     F          -0.19023299999999999          
         F5        1.0000    0.35040   0.96271   0.00700   Biso      1.000     F          -0.206704           
         F6        1.0000    0.17550   0.54964   0.02810   Biso      1.000     F          -0.21710500000000002          
         F7        1.0000    0.28850   0.48971   0.14310   Biso      1.000     F          -0.190144           
         F8        1.0000    0.14960   0.46271   0.99300   Biso      1.000     F          -0.20648000000000002          
         F9        1.0000    0.82450   0.45036   0.02810   Biso      1.000     F          -0.217358           
         F10       1.0000    0.64960   0.03729   0.00700   Biso      1.000     F          -0.206884           
         F11       1.0000    0.85040   0.53729   0.99300   Biso      1.000     F          -0.20636500000000002          
         F12       1.0000    0.71150   0.51029   0.14310   Biso      1.000     F          -0.19008699999999998          
         H1        1.0000    0.49870   0.39310   0.12540   Biso      1.000     H          0.128246  
         H2        1.0000    0.17910   0.26100   0.88180   Biso      1.000     H          0.123346  
         H3        1.0000    0.91540   0.13020   0.26320   Biso      1.000     H          0.10986099999999999           
         H4        1.0000    0.90930   0.12860   0.06110   Biso      1.000     H          0.131378  
         H5        1.0000    0.29220   0.23160   0.06100   Biso      1.000     H          0.12115699999999999           
         H6        1.0000    0.28770   0.23000   0.26220   Biso      1.000     H          0.09704199999999999           
         H7        1.0000    0.34300   0.01790   0.64000   Biso      1.000     H          0.13389   
         H8        1.0000    0.62360   0.10510   0.86460   Biso      1.000     H          0.105252  
         H9        1.0000    0.59970   0.18120   0.74290   Biso      1.000     H          0.10298299999999999           
         H10       1.0000    0.00130   0.89310   0.87460   Biso      1.000     H          0.128695  
         H11       1.0000    0.00950   0.88790   0.67340   Biso      1.000     H          0.110904  
         H12       1.0000    0.83180   0.73790   0.67940   Biso      1.000     H          0.10648599999999998           
         H13       1.0000    0.08460   0.86980   0.26320   Biso      1.000     H          0.111749  
         H14       1.0000    0.09070   0.87140   0.06110   Biso      1.000     H          0.132185  
         H15       1.0000    0.70780   0.76840   0.06100   Biso      1.000     H          0.12200899999999999           
         H16       1.0000    0.71230   0.77000   0.26220   Biso      1.000     H          0.099358  
         H17       1.0000    0.65700   0.98210   0.64000   Biso      1.000     H          0.13306500000000002           
         H18       1.0000    0.37640   0.89490   0.86460   Biso      1.000     H          0.104929  
         H19       1.0000    0.40030   0.81880   0.74290   Biso      1.000     H          0.103378  
         H20       1.0000    0.16820   0.26210   0.67940   Biso      1.000     H          0.10478299999999999           
         H21       1.0000    0.99050   0.11210   0.67340   Biso      1.000     H          0.10925699999999999           
         H22       1.0000    0.82090   0.73900   0.88180   Biso      1.000     H          0.123983  
         H23       1.0000    0.90030   0.68120   0.25710   Biso      1.000     H          0.10298399999999999           
         H24       1.0000    0.40930   0.37140   0.93890   Biso      1.000     H          0.131422  
         H25       1.0000    0.41540   0.36980   0.73680   Biso      1.000     H          0.11003099999999999           
         H26       1.0000    0.67910   0.23900   0.11820   Biso      1.000     H          0.12328199999999999           
         H27       1.0000    0.66820   0.23790   0.32060   Biso      1.000     H          0.104702  
         H28       1.0000    0.49050   0.38790   0.32660   Biso      1.000     H          0.10936199999999999           
         H29       1.0000    0.99870   0.10690   0.87460   Biso      1.000     H          0.128202  
         H30       1.0000    0.79220   0.26840   0.93900   Biso      1.000     H          0.121102  
         H31       1.0000    0.84300   0.48210   0.36000   Biso      1.000     H          0.133827  
         H32       1.0000    0.12360   0.39490   0.13540   Biso      1.000     H          0.105246  
         H33       1.0000    0.09970   0.31880   0.25710   Biso      1.000     H          0.10295599999999999           
         H34       1.0000    0.78770   0.27000   0.73780   Biso      1.000     H          0.096999  
         H35       1.0000    0.50950   0.61210   0.32660   Biso      1.000     H          0.109123  
         H36       1.0000    0.33180   0.76210   0.32060   Biso      1.000     H          0.10583499999999998           
         H37       1.0000    0.87640   0.60510   0.13540   Biso      1.000     H          0.105491  
         H38       1.0000    0.15700   0.51790   0.36000   Biso      1.000     H          0.13402999999999998           
         H39       1.0000    0.32090   0.76100   0.11820   Biso      1.000     H          0.12319000000000001           
         H40       1.0000    0.21230   0.73000   0.73780   Biso      1.000     H          0.097075  
         H41       1.0000    0.20780   0.73160   0.93900   Biso      1.000     H          0.12083699999999999           
         H42       1.0000    0.59070   0.62860   0.93890   Biso      1.000     H          0.131145  
         H43       1.0000    0.58460   0.63020   0.73680   Biso      1.000     H          0.10981700000000001           
         H44       1.0000    0.50130   0.60690   0.12540   Biso      1.000     H          0.127965  
         N1        1.0000    0.10080   0.18062   0.28360   Biso      1.000     N          -0.190166           
         N2        1.0000    0.60080   0.31938   0.71640   Biso      1.000     N          -0.190165           
         N3        1.0000    0.41830   0.68729   0.34380   Biso      1.000     N          -0.225541           
         N4        1.0000    0.39920   0.68062   0.71640   Biso      1.000     N          -0.189618           
         N5        1.0000    0.08170   0.18729   0.65620   Biso      1.000     N          -0.22600599999999998          
         N6        1.0000    0.91830   0.81271   0.65620   Biso      1.000     N          -0.197107           
         N7        1.0000    0.89920   0.81938   0.28360   Biso      1.000     N          -0.164802           
         N8        1.0000    0.58170   0.31271   0.34380   Biso      1.000     N          -0.22602399999999997          
         Ni1       1.0000    0.40934   0.68500   0.52940   Biso      1.000     Ni          0.780405  
         Ni2       1.0000    0.59066   0.31500   0.52940   Biso      1.000     Ni          0.777516  
         Ni3       1.0000    0.09066   0.18500   0.47060   Biso      1.000     Ni          0.7775810000000001  
         Ni4       1.0000    0.90934   0.81500   0.47060   Biso      1.000     Ni          0.671026  
         O1        1.0000    0.86690   0.43072   0.61190   Biso      1.000     O          -0.510233           
         O2        1.0000    0.63790   0.39922   0.52910   Biso      1.000     O          -0.611032           
         O3        1.0000    0.83540   0.29484   0.52850   Biso      1.000     O          -0.523742           
         O4        1.0000    0.07030   0.26938   0.44820   Biso      1.000     O          -0.551144           
         O5        1.0000    0.16460   0.70516   0.52850   Biso      1.000     O          -0.5191   
         O6        1.0000    0.36210   0.60078   0.52910   Biso      1.000     O          -0.6117100000000001           
         O7        1.0000    0.13310   0.56928   0.61190   Biso      1.000     O          -0.510698           
         O8        1.0000    0.57030   0.23062   0.55180   Biso      1.000     O          -0.551089           
         O9        1.0000    0.33540   0.20516   0.47150   Biso      1.000     O          -0.523666           
         O10       1.0000    0.13790   0.10078   0.47090   Biso      1.000     O          -0.611448           
         O11       1.0000    0.36690   0.06928   0.38810   Biso      1.000     O          -0.511149           
         O12       1.0000    0.42970   0.76938   0.55180   Biso      1.000     O          -0.562681           
         O13       1.0000    0.86210   0.89922   0.47090   Biso      1.000     O          -0.578368           
         O14       1.0000    0.63310   0.93072   0.38810   Biso      1.000     O          -0.496167           
         O15       1.0000    0.92970   0.73062   0.44820   Biso      1.000     O          -0.520291           
         O16       1.0000    0.66460   0.79484   0.47150   Biso      1.000     O          -0.537838 