
##########################################################################
#               Crystallographic Information Format file
#               Produced by PyCifRW module
#
#  This is a CIF file.  CIF has been adopted by the International
#  Union of Crystallography as the standard for data archiving and
#  transmission.
#
#  For information on this file format, follow the CIF links at
#  http://www.iucr.org
##########################################################################

data_image0

_cell_length_a                          14.6235
_cell_length_b                          12.2856
_cell_length_c                          14.1355
_cell_angle_alpha                       90
_cell_angle_beta                        106.068
_cell_angle_gamma                       90
_symmetry_space_group_name_H-M          'P 1'
_symmetry_int_tables_number             1
loop_
  _symmetry_equiv_pos_as_xyz
         'x, y, z' 
loop_
  _atom_site_label
  _atom_site_occupancy
  _atom_site_fract_x
  _atom_site_fract_y
  _atom_site_fract_z
  _atom_site_thermal_displace_type
  _atom_site_B_iso_or_equiv
  _atom_site_type_symbol
  _atom_site_charge
         C1        1.0000    0.02640   0.48600   0.66410   Biso      1.000     C          0.534634  
         C2        1.0000    0.52290   0.81800   0.64200   Biso      1.000     C          0.621182  
         C3        1.0000    0.60150   0.90640   0.52500   Biso      1.000     C          0.086995  
         C4        1.0000    0.59110   0.81630   0.58110   Biso      1.000     C          -0.046521           
         C5        1.0000    0.64390   0.72670   0.57640   Biso      1.000     C          -0.047278           
         C6        1.0000    0.70360   0.72450   0.51680   Biso      1.000     C          -0.13087000000000001          
         C7        1.0000    0.70460   0.81250   0.45780   Biso      1.000     C          0.10956099999999999           
         C8        1.0000    0.26190   0.75620   0.61520   Biso      1.000     C          0.609274  
         C9        1.0000    0.76650   0.81790   0.38970   Biso      1.000     C          0.579638  
         C10       1.0000    0.73810   0.24380   0.38480   Biso      1.000     C          0.609274  
         C11       1.0000    0.81470   0.30680   0.45420   Biso      1.000     C          -0.040243           
         C12       1.0000    0.81120   0.42040   0.45350   Biso      1.000     C          -0.020000999999999998         
         C13       1.0000    0.87920   0.47400   0.51940   Biso      1.000     C          -0.1408   
         C14       1.0000    0.94860   0.42340   0.58790   Biso      1.000     C          0.13566199999999998           
         C15       1.0000    0.26650   0.68210   0.88970   Biso      1.000     C          0.579638  
         C16       1.0000    0.02290   0.68200   0.14200   Biso      1.000     C          0.621182  
         C17       1.0000    0.10150   0.59360   0.02500   Biso      1.000     C          0.086995  
         C18       1.0000    0.88830   0.25610   0.52250   Biso      1.000     C          0.081527  
         C19       1.0000    0.09110   0.68370   0.08110   Biso      1.000     C          -0.046521           
         C20       1.0000    0.44860   0.07660   0.08790   Biso      1.000     C          0.13564400000000001           
         C21       1.0000    0.31120   0.07960   0.95350   Biso      1.000     C          -0.020003999999999997         
         C22       1.0000    0.11170   0.74390   0.47750   Biso      1.000     C          0.081524  
         C23       1.0000    0.18530   0.69320   0.54580   Biso      1.000     C          -0.04024  
         C24       1.0000    0.18880   0.57960   0.54650   Biso      1.000     C          -0.020000999999999998         
         C25       1.0000    0.12080   0.52600   0.48060   Biso      1.000     C          -0.1408   
         C26       1.0000    0.05140   0.57660   0.41210   Biso      1.000     C          0.13566199999999998           
         C27       1.0000    0.73350   0.31790   0.11030   Biso      1.000     C          0.579638  
         C28       1.0000    0.97710   0.31800   0.85800   Biso      1.000     C          0.6211810000000001  
         C29       1.0000    0.37920   0.02600   0.01940   Biso      1.000     C          -0.140781           
         C30       1.0000    0.89850   0.40640   0.97500   Biso      1.000     C          0.086994  
         C31       1.0000    0.85610   0.22670   0.92360   Biso      1.000     C          -0.04729  
         C32       1.0000    0.79640   0.22450   0.98320   Biso      1.000     C          -0.130868           
         C33       1.0000    0.79540   0.31250   0.04220   Biso      1.000     C          0.10955999999999999           
         C34       1.0000    0.52640   0.01400   0.16410   Biso      1.000     C          0.534636  
         C35       1.0000    0.23810   0.25620   0.88480   Biso      1.000     C          0.609274  
         C36       1.0000    0.38830   0.24390   0.02250   Biso      1.000     C          0.081524  
         C37       1.0000    0.31470   0.19320   0.95420   Biso      1.000     C          -0.040239           
         C38       1.0000    0.90890   0.31630   0.91890   Biso      1.000     C          -0.04651  
         C39       1.0000    0.14390   0.77330   0.07640   Biso      1.000     C          -0.047278           
         C40       1.0000    0.97360   0.51400   0.33590   Biso      1.000     C          0.534634  
         C41       1.0000    0.29640   0.27550   0.48320   Biso      1.000     C          -0.130879           
         C42       1.0000    0.29540   0.18750   0.54220   Biso      1.000     C          0.10956199999999999           
         C43       1.0000    0.68530   0.80680   0.04580   Biso      1.000     C          -0.040246           
         C44       1.0000    0.61170   0.75610   0.97750   Biso      1.000     C          0.081528  
         C45       1.0000    0.62080   0.97400   0.98060   Biso      1.000     C          -0.140829           
         C46       1.0000    0.55140   0.92340   0.91210   Biso      1.000     C          0.135665  
         C47       1.0000    0.76190   0.74380   0.11520   Biso      1.000     C          0.609274  
         C48       1.0000    0.47360   0.98600   0.83590   Biso      1.000     C          0.534634  
         C49       1.0000    0.68880   0.92040   0.04650   Biso      1.000     C          -0.019972           
         C50       1.0000    0.20360   0.77550   0.01680   Biso      1.000     C          -0.13087000000000001          
         C51       1.0000    0.35610   0.27330   0.42360   Biso      1.000     C          -0.047279           
         C52       1.0000    0.23350   0.18210   0.61030   Biso      1.000     C          0.579638  
         C53       1.0000    0.40890   0.18370   0.41890   Biso      1.000     C          -0.046512           
         C54       1.0000    0.20460   0.68750   0.95780   Biso      1.000     C          0.10955999999999999           
         C55       1.0000    0.39850   0.09360   0.47500   Biso      1.000     C          0.086994  
         C56       1.0000    0.47710   0.18200   0.35800   Biso      1.000     C          0.6211810000000001  
         H1        1.0000    0.74240   0.66460   0.51650   Biso      1.000     H          0.13481300000000002           
         H2        1.0000    0.62140   0.04970   0.98210   Biso      1.000     H          0.127217  
         H3        1.0000    0.63960   0.66590   0.61410   Biso      1.000     H          0.124143  
         H4        1.0000    0.42850   0.02890   0.46710   Biso      1.000     H          0.103127  
         H5        1.0000    0.39140   0.31950   0.02350   Biso      1.000     H          0.11343299999999999           
         H6        1.0000    0.36040   0.33410   0.38590   Biso      1.000     H          0.124143  
         H7        1.0000    0.26280   0.04250   0.90840   Biso      1.000     H          0.132864  
         H8        1.0000    0.57150   0.97110   0.53290   Biso      1.000     H          0.103127  
         H9        1.0000    0.92850   0.47110   0.96710   Biso      1.000     H          0.103127  
         H10       1.0000    0.25760   0.33540   0.48350   Biso      1.000     H          0.13481400000000002           
         H11       1.0000    0.37860   0.95030   0.01790   Biso      1.000     H          0.12721400000000002           
         H12       1.0000    0.86040   0.16590   0.88590   Biso      1.000     H          0.124144  
         H13       1.0000    0.75760   0.16460   0.98350   Biso      1.000     H          0.13481300000000002           
         H14       1.0000    0.73720   0.95750   0.09160   Biso      1.000     H          0.13286199999999998           
         H15       1.0000    0.24240   0.83540   0.01650   Biso      1.000     H          0.13481300000000002           
         H16       1.0000    0.07150   0.52890   0.03290   Biso      1.000     H          0.103127  
         H17       1.0000    0.23720   0.54250   0.59160   Biso      1.000     H          0.132864  
         H18       1.0000    0.12140   0.45030   0.48210   Biso      1.000     H          0.12721500000000002           
         H19       1.0000    0.76280   0.45750   0.40840   Biso      1.000     H          0.132864  
         H20       1.0000    0.60860   0.68050   0.97650   Biso      1.000     H          0.11343299999999999           
         H21       1.0000    0.87860   0.54970   0.51790   Biso      1.000     H          0.12721500000000002           
         H22       1.0000    0.10860   0.81950   0.47650   Biso      1.000     H          0.11343299999999999           
         H23       1.0000    0.13960   0.83410   0.11410   Biso      1.000     H          0.124143  
         H24       1.0000    0.89140   0.18050   0.52350   Biso      1.000     H          0.11343299999999999           
         N1        1.0000    0.54290   0.81430   0.91100   Biso      1.000     N          -0.25201399999999996          
         N2        1.0000    0.15300   0.59670   0.96020   Biso      1.000     N          -0.24985300000000002          
         N3        1.0000    0.04290   0.68570   0.41100   Biso      1.000     N          -0.252013           
         N4        1.0000    0.95710   0.31430   0.58900   Biso      1.000     N          -0.252013           
         N5        1.0000    0.34700   0.09670   0.53980   Biso      1.000     N          -0.24985300000000002          
         N6        1.0000    0.65300   0.90330   0.46020   Biso      1.000     N          -0.24985300000000002          
         N7        1.0000    0.45710   0.18570   0.08900   Biso      1.000     N          -0.252011           
         N8        1.0000    0.84700   0.40330   0.03980   Biso      1.000     N          -0.249852           
         O1        1.0000    0.03870   0.39030   0.88570   Biso      1.000     O          -0.603504           
         O2        1.0000    0.24650   0.09810   0.66470   Biso      1.000     O          -0.561702           
         O3        1.0000    0.53870   0.10970   0.38570   Biso      1.000     O          -0.603504           
         O4        1.0000    0.47280   0.24690   0.29090   Biso      1.000     O          -0.579095           
         O5        1.0000    0.24910   0.86110   0.60970   Biso      1.000     O          -0.568469           
         O6        1.0000    0.32940   0.70950   0.67570   Biso      1.000     O          -0.52025  
         O7        1.0000    0.97730   0.41350   0.32350   Biso      1.000     O          -0.525163           
         O8        1.0000    0.90790   0.57470   0.28620   Biso      1.000     O          -0.554266           
         O9        1.0000    0.17280   0.24960   0.61110   Biso      1.000     O          -0.5308609999999999           
         O10       1.0000    0.97280   0.25310   0.79090   Biso      1.000     O          -0.579095           
         O11       1.0000    0.17060   0.20950   0.82430   Biso      1.000     O          -0.52025  
         O12       1.0000    0.74650   0.40190   0.16470   Biso      1.000     O          -0.561702           
         O13       1.0000    0.96130   0.60970   0.11430   Biso      1.000     O          -0.603504           
         O14       1.0000    0.02720   0.74690   0.20910   Biso      1.000     O          -0.579096           
         O15       1.0000    0.32720   0.74960   0.88890   Biso      1.000     O          -0.5308609999999999           
         O16       1.0000    0.09210   0.42530   0.71380   Biso      1.000     O          -0.554266           
         O17       1.0000    0.02270   0.58650   0.67650   Biso      1.000     O          -0.525163           
         O18       1.0000    0.67060   0.29050   0.32430   Biso      1.000     O          -0.52025  
         O19       1.0000    0.75090   0.13890   0.39030   Biso      1.000     O          -0.568469           
         O20       1.0000    0.25350   0.59810   0.83530   Biso      1.000     O          -0.561702           
         O21       1.0000    0.75350   0.90190   0.33530   Biso      1.000     O          -0.561702           
         O22       1.0000    0.67280   0.25040   0.11110   Biso      1.000     O          -0.5308609999999999           
         O23       1.0000    0.52720   0.75310   0.70910   Biso      1.000     O          -0.579095           
         O24       1.0000    0.82720   0.75040   0.38890   Biso      1.000     O          -0.5308609999999999           
         O25       1.0000    0.74910   0.63890   0.10970   Biso      1.000     O          -0.568469           
         O26       1.0000    0.59210   0.07470   0.21380   Biso      1.000     O          -0.554267           
         O27       1.0000    0.52270   0.91350   0.17650   Biso      1.000     O          -0.5251640000000001           
         O28       1.0000    0.25090   0.36110   0.89030   Biso      1.000     O          -0.568469           
         O29       1.0000    0.82940   0.79050   0.17570   Biso      1.000     O          -0.52025  
         O30       1.0000    0.47730   0.08650   0.82350   Biso      1.000     O          -0.525163           
         O31       1.0000    0.40790   0.92530   0.78620   Biso      1.000     O          -0.554267           
         O32       1.0000    0.46130   0.89030   0.61430   Biso      1.000     O          -0.603504           
         Zn1       1.0000    0.92280   0.74410   0.29970   Biso      1.000     Zn          0.95516   
         Zn2       1.0000    0.57720   0.24410   0.20030   Biso      1.000     Zn          0.95516   
         Zn3       1.0000    0.65890   0.02250   0.35330   Biso      1.000     Zn          0.9216610000000001  
         Zn4       1.0000    0.15890   0.47750   0.85330   Biso      1.000     Zn          0.9216620000000001  
         Zn5       1.0000    0.07720   0.25590   0.70030   Biso      1.000     Zn          0.95516   
         Zn6       1.0000    0.42280   0.75590   0.79970   Biso      1.000     Zn          0.95516   
         Zn7       1.0000    0.84110   0.52250   0.14670   Biso      1.000     Zn          0.9216620000000001  
         Zn8       1.0000    0.34110   0.97750   0.64670   Biso      1.000     Zn          0.9216610000000001 