
##########################################################################
#               Crystallographic Information Format file
#               Produced by PyCifRW module
#
#  This is a CIF file.  CIF has been adopted by the International
#  Union of Crystallography as the standard for data archiving and
#  transmission.
#
#  For information on this file format, follow the CIF links at
#  http://www.iucr.org
##########################################################################

data_image0

_cell_length_a                          11.5641
_cell_length_b                          12.0913
_cell_length_c                          16.4202
_cell_angle_alpha                       90
_cell_angle_beta                        106.261
_cell_angle_gamma                       90
_symmetry_space_group_name_H-M          'P 1'
_symmetry_int_tables_number             1
loop_
  _symmetry_equiv_pos_as_xyz
         'x, y, z' 
loop_
  _atom_site_label
  _atom_site_occupancy
  _atom_site_fract_x
  _atom_site_fract_y
  _atom_site_fract_z
  _atom_site_thermal_displace_type
  _atom_site_B_iso_or_equiv
  _atom_site_type_symbol
  _atom_site_charge
         C1        1.0000    0.07510   0.75640   0.91730   Biso      1.000     C          0.086905  
         C2        1.0000    0.55500   0.96480   0.39250   Biso      1.000     C          -0.13030799999999998          
         C3        1.0000    0.08480   0.30400   0.50030   Biso      1.000     C          0.571811  
         C4        1.0000    0.94500   0.46480   0.10750   Biso      1.000     C          -0.13030799999999998          
         C5        1.0000    0.44740   0.70160   0.27080   Biso      1.000     C          0.603066  
         C6        1.0000    0.69440   0.99030   0.54010   Biso      1.000     C          0.549353  
         C7        1.0000    0.37860   0.29110   0.27050   Biso      1.000     C          0.562579  
         C8        1.0000    0.49560   0.89520   0.32760   Biso      1.000     C          -0.028244           
         C9        1.0000    0.50440   0.10480   0.67240   Biso      1.000     C          -0.028247           
         C10       1.0000    0.49100   0.21770   0.66110   Biso      1.000     C          -0.05221699999999999          
         C11       1.0000    0.46830   0.78570   0.92710   Biso      1.000     C          -0.028298           
         C12       1.0000    0.06920   0.75850   0.29990   Biso      1.000     C          0.11624000000000001           
         C13       1.0000    0.53170   0.21430   0.07290   Biso      1.000     C          -0.028299           
         C14       1.0000    0.57510   0.74360   0.41730   Biso      1.000     C          0.086904  
         C15       1.0000    0.55260   0.29840   0.72920   Biso      1.000     C          0.603066  
         C16       1.0000    0.49290   0.87110   0.87970   Biso      1.000     C          -0.019425           
         C17       1.0000    0.45730   0.15080   0.18570   Biso      1.000     C          -0.125164           
         C18       1.0000    0.92490   0.24360   0.08270   Biso      1.000     C          0.086905  
         C19       1.0000    0.30560   0.00970   0.45990   Biso      1.000     C          0.549353  
         C20       1.0000    0.03170   0.28570   0.57290   Biso      1.000     C          -0.028298           
         C21       1.0000    0.12300   0.57960   0.96690   Biso      1.000     C          0.13231099999999998           
         C22       1.0000    0.00710   0.37110   0.62030   Biso      1.000     C          -0.019425           
         C23       1.0000    0.44500   0.03520   0.60750   Biso      1.000     C          -0.130304           
         C24       1.0000    0.93080   0.24150   0.70010   Biso      1.000     C          0.11623900000000001           
         C25       1.0000    0.05500   0.53520   0.89250   Biso      1.000     C          -0.130301           
         C26       1.0000    0.58480   0.19600   0.00030   Biso      1.000     C          0.571811  
         C27       1.0000    0.91520   0.69600   0.49970   Biso      1.000     C          0.571811  
         C28       1.0000    0.05260   0.20160   0.22920   Biso      1.000     C          0.603066  
         C29       1.0000    0.56920   0.74150   0.79990   Biso      1.000     C          0.11623900000000001           
         C30       1.0000    0.42490   0.25640   0.58270   Biso      1.000     C          0.086906  
         C31       1.0000    0.19440   0.50970   0.04010   Biso      1.000     C          0.549354  
         C32       1.0000    0.00900   0.71770   0.83890   Biso      1.000     C          -0.052221000000000004         
         C33       1.0000    0.04270   0.65080   0.31430   Biso      1.000     C          -0.125158           
         C34       1.0000    0.87700   0.42040   0.03310   Biso      1.000     C          0.13231700000000002           
         C35       1.0000    0.99100   0.28230   0.16110   Biso      1.000     C          -0.05222  
         C36       1.0000    0.12140   0.79110   0.22950   Biso      1.000     C          0.562579  
         C37       1.0000    0.80560   0.49030   0.95990   Biso      1.000     C          0.549353  
         C38       1.0000    0.43080   0.25850   0.20010   Biso      1.000     C          0.116244  
         C39       1.0000    0.62140   0.70890   0.72950   Biso      1.000     C          0.562579  
         C40       1.0000    0.62300   0.92040   0.46690   Biso      1.000     C          0.13231700000000002           
         C41       1.0000    0.99290   0.62890   0.37970   Biso      1.000     C          -0.019428           
         C42       1.0000    0.87860   0.20890   0.77050   Biso      1.000     C          0.562579  
         C43       1.0000    0.50900   0.78230   0.33890   Biso      1.000     C          -0.052215           
         C44       1.0000    0.94740   0.79840   0.77080   Biso      1.000     C          0.603066  
         C45       1.0000    0.50710   0.12890   0.12030   Biso      1.000     C          -0.019421           
         C46       1.0000    0.95730   0.34920   0.68570   Biso      1.000     C          -0.125155           
         C47       1.0000    0.41520   0.80400   0.99970   Biso      1.000     C          0.571811  
         C48       1.0000    0.99400   0.82120   0.40670   Biso      1.000     C          0.072179  
         C49       1.0000    0.50600   0.32120   0.09330   Biso      1.000     C          0.072181  
         C50       1.0000    0.99560   0.60480   0.82760   Biso      1.000     C          -0.028239999999999998         
         C51       1.0000    0.54270   0.84920   0.81430   Biso      1.000     C          -0.125155           
         C52       1.0000    0.49400   0.67880   0.90670   Biso      1.000     C          0.072181  
         C53       1.0000    0.00600   0.17880   0.59330   Biso      1.000     C          0.072181  
         C54       1.0000    0.00440   0.39520   0.17240   Biso      1.000     C          -0.028239           
         C55       1.0000    0.37700   0.07960   0.53310   Biso      1.000     C          0.13231700000000002           
         C56       1.0000    0.96830   0.71430   0.42710   Biso      1.000     C          -0.028292           
         H1        1.0000    0.02390   0.44360   0.60840   Biso      1.000     H          0.134072  
         H2        1.0000    0.44690   0.92400   0.27710   Biso      1.000     H          0.126386  
         H3        1.0000    0.94690   0.57600   0.77710   Biso      1.000     H          0.126386  
         H4        1.0000    0.47610   0.94360   0.89160   Biso      1.000     H          0.134072  
         H5        1.0000    0.97440   0.87970   0.43720   Biso      1.000     H          0.103277  
         H6        1.0000    0.08070   0.83230   0.92640   Biso      1.000     H          0.11362799999999999           
         H7        1.0000    0.54960   0.04110   0.38550   Biso      1.000     H          0.13801   
         H8        1.0000    0.44190   0.09380   0.21930   Biso      1.000     H          0.135116  
         H9        1.0000    0.05310   0.42400   0.22290   Biso      1.000     H          0.126386  
         H10       1.0000    0.47440   0.62030   0.93720   Biso      1.000     H          0.103277  
         H11       1.0000    0.41930   0.33230   0.57360   Biso      1.000     H          0.11362799999999999           
         H12       1.0000    0.95040   0.54110   0.11450   Biso      1.000     H          0.13801   
         H13       1.0000    0.52390   0.05640   0.10840   Biso      1.000     H          0.134072  
         H14       1.0000    0.58070   0.66770   0.42640   Biso      1.000     H          0.11362799999999999           
         H15       1.0000    0.52560   0.37970   0.06280   Biso      1.000     H          0.103277  
         H16       1.0000    0.45040   0.95890   0.61450   Biso      1.000     H          0.138009  
         H17       1.0000    0.55310   0.07600   0.72290   Biso      1.000     H          0.126386  
         H18       1.0000    0.97610   0.55640   0.39160   Biso      1.000     H          0.134073  
         H19       1.0000    0.55810   0.90620   0.78070   Biso      1.000     H          0.135116  
         H20       1.0000    0.91930   0.16770   0.07360   Biso      1.000     H          0.11362799999999999           
         H21       1.0000    0.04960   0.45890   0.88550   Biso      1.000     H          0.138009  
         H22       1.0000    0.94190   0.40620   0.71930   Biso      1.000     H          0.135116  
         H23       1.0000    0.05810   0.59380   0.28070   Biso      1.000     H          0.135116  
         H24       1.0000    0.02560   0.12030   0.56280   Biso      1.000     H          0.103277  
         N1        1.0000    0.54500   0.65680   0.84520   Biso      1.000     N          -0.26475  
         N2        1.0000    0.45500   0.34320   0.15480   Biso      1.000     N          -0.26475  
         N3        1.0000    0.86820   0.31130   0.01930   Biso      1.000     N          -0.247477           
         N4        1.0000    0.63180   0.81130   0.48070   Biso      1.000     N          -0.247477           
         N5        1.0000    0.13180   0.68870   0.98070   Biso      1.000     N          -0.24747600000000003          
         N6        1.0000    0.95500   0.15680   0.65480   Biso      1.000     N          -0.26475  
         N7        1.0000    0.36820   0.18870   0.51930   Biso      1.000     N          -0.247477           
         N8        1.0000    0.04500   0.84320   0.34520   Biso      1.000     N          -0.26475  
         O1        1.0000    0.88490   0.76240   0.70170   Biso      1.000     O          -0.5419229999999999           
         O2        1.0000    0.38850   0.89970   0.01550   Biso      1.000     O          -0.580537           
         O3        1.0000    0.24680   0.06260   0.39490   Biso      1.000     O          -0.559002           
         O4        1.0000    0.14270   0.71830   0.18270   Biso      1.000     O          -0.5151060000000001           
         O5        1.0000    0.13530   0.89390   0.22080   Biso      1.000     O          -0.5531159999999999           
         O6        1.0000    0.39730   0.71780   0.03630   Biso      1.000     O          -0.610959           
         O7        1.0000    0.46530   0.60160   0.29130   Biso      1.000     O          -0.500479           
         O8        1.0000    0.25320   0.56260   0.10510   Biso      1.000     O          -0.559002           
         O9        1.0000    0.75320   0.93740   0.60510   Biso      1.000     O          -0.559002           
         O10       1.0000    0.10270   0.21780   0.46370   Biso      1.000     O          -0.610959           
         O11       1.0000    0.63530   0.60610   0.72080   Biso      1.000     O          -0.553117           
         O12       1.0000    0.18980   0.40830   0.03320   Biso      1.000     O          -0.523939           
         O13       1.0000    0.61150   0.10030   0.98450   Biso      1.000     O          -0.580537           
         O14       1.0000    0.68980   0.09170   0.53320   Biso      1.000     O          -0.523939           
         O15       1.0000    0.96530   0.89840   0.79130   Biso      1.000     O          -0.500479           
         O16       1.0000    0.85730   0.28170   0.81730   Biso      1.000     O          -0.5151060000000001           
         O17       1.0000    0.89730   0.78220   0.53630   Biso      1.000     O          -0.610959           
         O18       1.0000    0.86470   0.10610   0.77920   Biso      1.000     O          -0.5531159999999999           
         O19       1.0000    0.64270   0.78170   0.68270   Biso      1.000     O          -0.5151060000000001           
         O20       1.0000    0.81020   0.59170   0.96680   Biso      1.000     O          -0.523938           
         O21       1.0000    0.61510   0.26240   0.79830   Biso      1.000     O          -0.5419229999999999           
         O22       1.0000    0.88850   0.60030   0.51550   Biso      1.000     O          -0.5805359999999999           
         O23       1.0000    0.36470   0.39390   0.27920   Biso      1.000     O          -0.5531159999999999           
         O24       1.0000    0.03470   0.10160   0.20870   Biso      1.000     O          -0.500479           
         O25       1.0000    0.60270   0.28220   0.96370   Biso      1.000     O          -0.610959           
         O26       1.0000    0.35730   0.21830   0.31730   Biso      1.000     O          -0.5151060000000001           
         O27       1.0000    0.38490   0.73760   0.20170   Biso      1.000     O          -0.5419229999999999           
         O28       1.0000    0.53470   0.39840   0.70870   Biso      1.000     O          -0.500479           
         O29       1.0000    0.31020   0.90830   0.46680   Biso      1.000     O          -0.523939           
         O30       1.0000    0.11510   0.23760   0.29830   Biso      1.000     O          -0.5419229999999999           
         O31       1.0000    0.74680   0.43740   0.89490   Biso      1.000     O          -0.559003           
         O32       1.0000    0.11150   0.39970   0.48450   Biso      1.000     O          -0.5805359999999999           
         Zn1       1.0000    0.08830   0.00150   0.30630   Biso      1.000     Zn          0.9020600000000001  
         Zn2       1.0000    0.24770   0.73570   0.09969   Biso      1.000     Zn          0.933933  
         Zn3       1.0000    0.41170   0.50150   0.19370   Biso      1.000     Zn          0.9020600000000001  
         Zn4       1.0000    0.74770   0.76430   0.59969   Biso      1.000     Zn          0.933934  
         Zn5       1.0000    0.91170   0.99850   0.69370   Biso      1.000     Zn          0.9020600000000001  
         Zn6       1.0000    0.75230   0.26430   0.90031   Biso      1.000     Zn          0.933934  
         Zn7       1.0000    0.25230   0.23570   0.40031   Biso      1.000     Zn          0.933933  
         Zn8       1.0000    0.58830   0.49850   0.80630   Biso      1.000     Zn          0.9020600000000001 