
##########################################################################
#               Crystallographic Information Format file
#               Produced by PyCifRW module
#
#  This is a CIF file.  CIF has been adopted by the International
#  Union of Crystallography as the standard for data archiving and
#  transmission.
#
#  For information on this file format, follow the CIF links at
#  http://www.iucr.org
##########################################################################

data_image0

_cell_length_a                          12.18
_cell_length_b                          14.2107
_cell_length_c                          14.2834
_cell_angle_alpha                       105.093
_cell_angle_beta                        90
_cell_angle_gamma                       90
_symmetry_space_group_name_H-M          'P 1'
_symmetry_int_tables_number             1
loop_
  _symmetry_equiv_pos_as_xyz
         'x, y, z' 
loop_
  _atom_site_label
  _atom_site_occupancy
  _atom_site_fract_x
  _atom_site_fract_y
  _atom_site_fract_z
  _atom_site_thermal_displace_type
  _atom_site_B_iso_or_equiv
  _atom_site_type_symbol
  _atom_site_charge
         C1        1.0000    0.81490   0.59430   0.56990   Biso      1.000     C          -0.055223           
         C2        1.0000    0.73350   0.76820   0.12430   Biso      1.000     C          0.62035   
         C3        1.0000    0.17960   0.22040   0.61690   Biso      1.000     C          0.574321  
         C4        1.0000    0.98670   0.49100   0.84310   Biso      1.000     C          0.535957  
         C5        1.0000    0.31010   0.78510   0.05020   Biso      1.000     C          0.10409700000000001           
         C6        1.0000    0.57780   0.06590   0.42030   Biso      1.000     C          0.140308  
         C7        1.0000    0.20100   0.30510   0.94680   Biso      1.000     C          -0.049311           
         C8        1.0000    0.68990   0.21490   0.94980   Biso      1.000     C          0.10409700000000001           
         C9        1.0000    0.26170   0.33390   0.41700   Biso      1.000     C          -0.047447           
         C10       1.0000    0.81010   0.71490   0.44980   Biso      1.000     C          0.104098  
         C11       1.0000    0.67960   0.27960   0.88310   Biso      1.000     C          0.574321  
         C12       1.0000    0.26650   0.23180   0.87570   Biso      1.000     C          0.62035   
         C13       1.0000    0.41280   0.80170   0.44120   Biso      1.000     C          -0.014978           
         C14       1.0000    0.23830   0.83390   0.91700   Biso      1.000     C          -0.047448000000000004         
         C15       1.0000    0.31490   0.90570   0.93010   Biso      1.000     C          -0.05520599999999999          
         C16       1.0000    0.23350   0.73180   0.37570   Biso      1.000     C          0.62035   
         C17       1.0000    0.25000   0.37610   0.01900   Biso      1.000     C          0.07648300000000001           
         C18       1.0000    0.70100   0.19490   0.55320   Biso      1.000     C          -0.049314           
         C19       1.0000    0.17650   0.47270   0.36660   Biso      1.000     C          0.623428  
         C20       1.0000    0.76650   0.26820   0.62430   Biso      1.000     C          0.6203489999999999  
         C21       1.0000    0.32350   0.97270   0.86660   Biso      1.000     C          0.623428  
         C22       1.0000    0.79900   0.69490   0.05320   Biso      1.000     C          -0.049311           
         C23       1.0000    0.29900   0.80510   0.44680   Biso      1.000     C          -0.04931  
         C24       1.0000    0.67650   0.02730   0.13340   Biso      1.000     C          0.623428  
         C25       1.0000    0.25000   0.87610   0.51900   Biso      1.000     C          0.07648300000000001           
         C26       1.0000    0.92220   0.56590   0.92030   Biso      1.000     C          0.14030499999999999           
         C27       1.0000    0.26470   0.27080   0.47650   Biso      1.000     C          -0.12801099999999999          
         C28       1.0000    0.18990   0.28510   0.55020   Biso      1.000     C          0.10410499999999999           
         C29       1.0000    0.38600   0.91430   0.00870   Biso      1.000     C          0.102546  
         C30       1.0000    0.76170   0.16610   0.08300   Biso      1.000     C          -0.047448000000000004         
         C31       1.0000    0.32040   0.72040   0.11690   Biso      1.000     C          0.574321  
         C32       1.0000    0.91280   0.69830   0.05880   Biso      1.000     C          -0.014978           
         C33       1.0000    0.18510   0.40570   0.43010   Biso      1.000     C          -0.055205           
         C34       1.0000    0.11400   0.41430   0.50870   Biso      1.000     C          0.102546  
         C35       1.0000    0.01330   0.50900   0.15690   Biso      1.000     C          0.5359550000000001  
         C36       1.0000    0.48670   0.00900   0.65690   Biso      1.000     C          0.535957  
         C37       1.0000    0.82040   0.77960   0.38310   Biso      1.000     C          0.574321  
         C38       1.0000    0.23530   0.77080   0.97650   Biso      1.000     C          -0.128003           
         C39       1.0000    0.96960   0.63310   0.99250   Biso      1.000     C          -0.139807           
         C40       1.0000    0.08720   0.30170   0.94120   Biso      1.000     C          -0.014974000000000001         
         C41       1.0000    0.88600   0.58570   0.49130   Biso      1.000     C          0.102548  
         C42       1.0000    0.53040   0.13310   0.49250   Biso      1.000     C          -0.13983800000000002          
         C43       1.0000    0.73830   0.66610   0.58300   Biso      1.000     C          -0.04743  
         C44       1.0000    0.51330   0.99100   0.34310   Biso      1.000     C          0.535957  
         C45       1.0000    0.42220   0.93410   0.57970   Biso      1.000     C          0.14030499999999999           
         C46       1.0000    0.73530   0.72920   0.52350   Biso      1.000     C          -0.128005           
         C47       1.0000    0.58720   0.19830   0.55880   Biso      1.000     C          -0.014948           
         C48       1.0000    0.82350   0.52730   0.63340   Biso      1.000     C          0.62343   
         C49       1.0000    0.75000   0.12390   0.48100   Biso      1.000     C          0.07648300000000001           
         C50       1.0000    0.03040   0.36690   0.00750   Biso      1.000     C          -0.13983299999999999          
         C51       1.0000    0.46960   0.86690   0.50750   Biso      1.000     C          -0.139807           
         C52       1.0000    0.75000   0.62390   0.98100   Biso      1.000     C          0.07648300000000001           
         C53       1.0000    0.68510   0.09430   0.06990   Biso      1.000     C          -0.055205           
         C54       1.0000    0.76470   0.22920   0.02350   Biso      1.000     C          -0.128003           
         C55       1.0000    0.07780   0.43410   0.07970   Biso      1.000     C          0.140329  
         C56       1.0000    0.61400   0.08570   0.99130   Biso      1.000     C          0.102546  
         H1        1.0000    0.55160   0.24470   0.60740   Biso      1.000     H          0.135195  
         H2        1.0000    0.68410   0.77940   0.53340   Biso      1.000     H          0.136546  
         H3        1.0000    0.05160   0.25530   0.89260   Biso      1.000     H          0.135197  
         H4        1.0000    0.93640   0.53480   0.47880   Biso      1.000     H          0.09726   
         H5        1.0000    0.31590   0.22060   0.46660   Biso      1.000     H          0.136546  
         H6        1.0000    0.18700   0.82700   0.86740   Biso      1.000     H          0.125181  
         H7        1.0000    0.67390   0.61980   0.97820   Biso      1.000     H          0.114774  
         H8        1.0000    0.54580   0.86580   0.50340   Biso      1.000     H          0.126298  
         H9        1.0000    0.18410   0.72060   0.96660   Biso      1.000     H          0.136546  
         H10       1.0000    0.94840   0.74470   0.10740   Biso      1.000     H          0.135197  
         H11       1.0000    0.82610   0.11980   0.47820   Biso      1.000     H          0.114774  
         H12       1.0000    0.81590   0.27940   0.03340   Biso      1.000     H          0.136546  
         H13       1.0000    0.44840   0.75530   0.39260   Biso      1.000     H          0.135197  
         H14       1.0000    0.04580   0.63420   0.99660   Biso      1.000     H          0.126298  
         H15       1.0000    0.32610   0.38020   0.02180   Biso      1.000     H          0.114774  
         H16       1.0000    0.56360   0.03480   0.97880   Biso      1.000     H          0.09726   
         H17       1.0000    0.17390   0.88020   0.52180   Biso      1.000     H          0.114774  
         H18       1.0000    0.43640   0.96520   0.02120   Biso      1.000     H          0.09726   
         H19       1.0000    0.68700   0.67300   0.63260   Biso      1.000     H          0.12517999999999999           
         H20       1.0000    0.95420   0.36580   0.00340   Biso      1.000     H          0.1263    
         H21       1.0000    0.31300   0.32700   0.36740   Biso      1.000     H          0.125181  
         H22       1.0000    0.06360   0.46520   0.52120   Biso      1.000     H          0.09726   
         H23       1.0000    0.45420   0.13420   0.49660   Biso      1.000     H          0.1263    
         H24       1.0000    0.81300   0.17300   0.13260   Biso      1.000     H          0.125181  
         N1        1.0000    0.61320   0.14310   0.93480   Biso      1.000     N          -0.237386           
         N2        1.0000    0.68830   0.05870   0.41290   Biso      1.000     N          -0.258738           
         N3        1.0000    0.11320   0.35690   0.56520   Biso      1.000     N          -0.237387           
         N4        1.0000    0.38680   0.85690   0.06520   Biso      1.000     N          -0.237386           
         N5        1.0000    0.88680   0.64310   0.43480   Biso      1.000     N          -0.237387           
         N6        1.0000    0.18830   0.44130   0.08710   Biso      1.000     N          -0.25874  
         N7        1.0000    0.81170   0.55870   0.91290   Biso      1.000     N          -0.258738           
         N8        1.0000    0.31170   0.94130   0.58710   Biso      1.000     N          -0.258738           
         O1        1.0000    0.72230   0.33530   0.68620   Biso      1.000     O          -0.529147           
         O2        1.0000    0.91480   0.49800   0.17700   Biso      1.000     O          -0.534467           
         O3        1.0000    0.42950   0.08170   0.69940   Biso      1.000     O          -0.558049           
         O4        1.0000    0.58520   0.99800   0.67700   Biso      1.000     O          -0.534468           
         O5        1.0000    0.12940   0.74560   0.38160   Biso      1.000     O          -0.560612           
         O6        1.0000    0.76690   0.53490   0.70570   Biso      1.000     O          -0.579266           
         O7        1.0000    0.77770   0.83530   0.18620   Biso      1.000     O          -0.529147           
         O8        1.0000    0.90370   0.76310   0.32780   Biso      1.000     O          -0.556496           
         O9        1.0000    0.87060   0.25440   0.61840   Biso      1.000     O          -0.560612           
         O10       1.0000    0.75360   0.84350   0.38370   Biso      1.000     O          -0.526859           
         O11       1.0000    0.59630   0.26310   0.82780   Biso      1.000     O          -0.556496           
         O12       1.0000    0.57050   0.91830   0.30060   Biso      1.000     O          -0.558049           
         O13       1.0000    0.10250   0.53620   0.39380   Biso      1.000     O          -0.6031920000000001           
         O14       1.0000    0.37060   0.24560   0.88160   Biso      1.000     O          -0.560612           
         O15       1.0000    0.08520   0.50200   0.82300   Biso      1.000     O          -0.534468           
         O16       1.0000    0.07050   0.58170   0.19940   Biso      1.000     O          -0.558049           
         O17       1.0000    0.62940   0.75440   0.11840   Biso      1.000     O          -0.560612           
         O18       1.0000    0.92950   0.41830   0.80060   Biso      1.000     O          -0.558049           
         O19       1.0000    0.39750   0.03620   0.89380   Biso      1.000     O          -0.6031920000000001           
         O20       1.0000    0.23310   0.46510   0.29430   Biso      1.000     O          -0.579266           
         O21       1.0000    0.41480   0.00200   0.32300   Biso      1.000     O          -0.534468           
         O22       1.0000    0.24640   0.15650   0.61630   Biso      1.000     O          -0.526859           
         O23       1.0000    0.40370   0.73690   0.17220   Biso      1.000     O          -0.556496           
         O24       1.0000    0.60250   0.96380   0.10620   Biso      1.000     O          -0.6031920000000001           
         O25       1.0000    0.09630   0.23690   0.67220   Biso      1.000     O          -0.556496           
         O26       1.0000    0.26690   0.96510   0.79430   Biso      1.000     O          -0.579266           
         O27       1.0000    0.25360   0.65650   0.11630   Biso      1.000     O          -0.526859           
         O28       1.0000    0.22230   0.16470   0.81380   Biso      1.000     O          -0.529147           
         O29       1.0000    0.89750   0.46380   0.60620   Biso      1.000     O          -0.6031920000000001           
         O30       1.0000    0.74640   0.34350   0.88370   Biso      1.000     O          -0.526859           
         O31       1.0000    0.73310   0.03490   0.20570   Biso      1.000     O          -0.579266           
         O32       1.0000    0.27770   0.66470   0.31380   Biso      1.000     O          -0.529147           
         Zn1       1.0000    0.48450   0.15411   0.84209   Biso      1.000     Zn          0.906883  
         Zn2       1.0000    0.98450   0.34589   0.65791   Biso      1.000     Zn          0.906883  
         Zn3       1.0000    0.24190   0.56199   0.20091   Biso      1.000     Zn          0.9593389999999999  
         Zn4       1.0000    0.25810   0.06199   0.70091   Biso      1.000     Zn          0.9593389999999999  
         Zn5       1.0000    0.74190   0.93801   0.29909   Biso      1.000     Zn          0.9593389999999999  
         Zn6       1.0000    0.75810   0.43801   0.79909   Biso      1.000     Zn          0.9593389999999999  
         Zn7       1.0000    0.01550   0.65411   0.34209   Biso      1.000     Zn          0.906883  
         Zn8       1.0000    0.51550   0.84589   0.15791   Biso      1.000     Zn          0.906883 