
##########################################################################
#               Crystallographic Information Format file
#               Produced by PyCifRW module
#
#  This is a CIF file.  CIF has been adopted by the International
#  Union of Crystallography as the standard for data archiving and
#  transmission.
#
#  For information on this file format, follow the CIF links at
#  http://www.iucr.org
##########################################################################

data_image0

_cell_length_a                          7.644
_cell_length_b                          11.148
_cell_length_c                          22.262
_cell_angle_alpha                       90
_cell_angle_beta                        90
_cell_angle_gamma                       98.828
_symmetry_space_group_name_H-M          'P 1'
_symmetry_int_tables_number             1
loop_
  _symmetry_equiv_pos_as_xyz
         'x, y, z' 
loop_
  _atom_site_label
  _atom_site_occupancy
  _atom_site_fract_x
  _atom_site_fract_y
  _atom_site_fract_z
  _atom_site_thermal_displace_type
  _atom_site_B_iso_or_equiv
  _atom_site_type_symbol
  _atom_site_charge
         C1        1.0000    0.81500   0.85870   0.83870   Biso      1.000     C          -0.040981000000000004         
         C2        1.0000    0.89760   0.96510   0.80150   Biso      1.000     C          -0.368621           
         C3        1.0000    0.43240   0.47420   0.79800   Biso      1.000     C          0.726904  
         C4        1.0000    0.32500   0.56900   0.81630   Biso      1.000     C          -0.367586           
         C5        1.0000    0.18700   0.54460   0.84430   Biso      1.000     C          -0.0032329999999999998        
         C6        1.0000    0.03300   0.72140   0.13090   Biso      1.000     C          0.737679  
         C7        1.0000    0.98050   0.71050   0.06540   Biso      1.000     C          -0.36838899999999997          
         C8        1.0000    0.10950   0.79400   0.02740   Biso      1.000     C          -0.037773           
         C9        1.0000    0.04400   0.73500   0.84190   Biso      1.000     C          0.5779569999999999  
         C10       1.0000    0.17700   0.68900   0.93770   Biso      1.000     C          0.57067   
         C11       1.0000    0.77970   0.05630   0.78790   Biso      1.000     C          0.716575  
         C12       1.0000    0.96090   0.82620   0.93320   Biso      1.000     C          0.572569  
         C13       1.0000    0.60240   0.03490   0.30150   Biso      1.000     C          -0.368621           
         C14       1.0000    0.68500   0.14130   0.33870   Biso      1.000     C          -0.040982           
         C15       1.0000    0.06760   0.52580   0.29800   Biso      1.000     C          0.726904  
         C16       1.0000    0.17500   0.43100   0.31630   Biso      1.000     C          -0.367586           
         C17       1.0000    0.31300   0.45540   0.34430   Biso      1.000     C          -0.0032329999999999998        
         C18       1.0000    0.46700   0.27860   0.63090   Biso      1.000     C          0.737678  
         C19       1.0000    0.51950   0.28950   0.56540   Biso      1.000     C          -0.36838899999999997          
         C20       1.0000    0.39050   0.20600   0.52740   Biso      1.000     C          -0.037774           
         C21       1.0000    0.45600   0.26500   0.34190   Biso      1.000     C          0.5779569999999999  
         C22       1.0000    0.72030   0.94370   0.28790   Biso      1.000     C          0.716575  
         C23       1.0000    0.46090   0.82620   0.56680   Biso      1.000     C          0.572569  
         C24       1.0000    0.67700   0.68900   0.56230   Biso      1.000     C          0.57067   
         C25       1.0000    0.54400   0.73500   0.65810   Biso      1.000     C          0.5779569999999999  
         C26       1.0000    0.22030   0.94370   0.21210   Biso      1.000     C          0.716575  
         C27       1.0000    0.10240   0.03490   0.19850   Biso      1.000     C          -0.368622           
         C28       1.0000    0.18500   0.14130   0.16130   Biso      1.000     C          -0.040981000000000004         
         C29       1.0000    0.56760   0.52580   0.20200   Biso      1.000     C          0.726904  
         C30       1.0000    0.67500   0.43100   0.18370   Biso      1.000     C          -0.367587           
         C31       1.0000    0.81300   0.45540   0.15570   Biso      1.000     C          -0.0032329999999999998        
         C32       1.0000    0.96700   0.27860   0.86910   Biso      1.000     C          0.737678  
         C33       1.0000    0.01950   0.28950   0.93460   Biso      1.000     C          -0.36838899999999997          
         C34       1.0000    0.89050   0.20600   0.97260   Biso      1.000     C          -0.037774           
         C35       1.0000    0.95600   0.26500   0.15810   Biso      1.000     C          0.5779569999999999  
         C36       1.0000    0.82300   0.31100   0.06230   Biso      1.000     C          0.57067   
         C37       1.0000    0.03910   0.17380   0.06680   Biso      1.000     C          0.572569  
         C38       1.0000    0.27970   0.05630   0.71210   Biso      1.000     C          0.716575  
         C39       1.0000    0.39760   0.96510   0.69850   Biso      1.000     C          -0.368621           
         C40       1.0000    0.31500   0.85870   0.66130   Biso      1.000     C          -0.040981000000000004         
         C41       1.0000    0.93240   0.47420   0.70200   Biso      1.000     C          0.726904  
         C42       1.0000    0.82500   0.56900   0.68370   Biso      1.000     C          -0.367586           
         C43       1.0000    0.68700   0.54460   0.65570   Biso      1.000     C          -0.0032329999999999998        
         C44       1.0000    0.53300   0.72140   0.36910   Biso      1.000     C          0.737678  
         C45       1.0000    0.48050   0.71050   0.43460   Biso      1.000     C          -0.36838899999999997          
         C46       1.0000    0.60950   0.79400   0.47260   Biso      1.000     C          -0.037774           
         C47       1.0000    0.32300   0.31100   0.43770   Biso      1.000     C          0.57067   
         C48       1.0000    0.53910   0.17380   0.43320   Biso      1.000     C          0.572569  
         Gd1       1.0000    0.60511   0.26633   0.77882   Biso      1.000     Gd          2.068769  
         Gd2       1.0000    0.39489   0.73367   0.22118   Biso      1.000     Gd          2.068769  
         Gd3       1.0000    0.89489   0.73367   0.27882   Biso      1.000     Gd          2.068769  
         Gd4       1.0000    0.10511   0.26633   0.72118   Biso      1.000     Gd          2.068769  
         H1        1.0000    0.29690   0.60980   0.77980   Biso      1.000     H          0.14571900000000002           
         H2        1.0000    0.40180   0.62860   0.83980   Biso      1.000     H          0.158859  
         H3        1.0000    0.08870   0.51600   0.81780   Biso      1.000     H          0.10468   
         H4        1.0000    0.19610   0.48350   0.87460   Biso      1.000     H          0.10758599999999999           
         H5        1.0000    0.86250   0.73110   0.06050   Biso      1.000     H          0.141534  
         H6        1.0000    0.97810   0.62730   0.05220   Biso      1.000     H          0.149115  
         H7        1.0000    0.22930   0.78410   0.03840   Biso      1.000     H          0.11168299999999999           
         H8        1.0000    0.09540   0.87740   0.03560   Biso      1.000     H          0.11070799999999999           
         H9        1.0000    0.49860   0.99440   0.32250   Biso      1.000     H          0.158133  
         H10       1.0000    0.56270   0.06520   0.26390   Biso      1.000     H          0.154835  
         H11       1.0000    0.76840   0.11460   0.36670   Biso      1.000     H          0.113594  
         H12       1.0000    0.73160   0.88540   0.86670   Biso      1.000     H          0.113594  
         H13       1.0000    0.20310   0.39020   0.27980   Biso      1.000     H          0.14571900000000002           
         H14       1.0000    0.09820   0.37140   0.33980   Biso      1.000     H          0.158859  
         H15       1.0000    0.41130   0.48400   0.31780   Biso      1.000     H          0.10468   
         H16       1.0000    0.30390   0.51650   0.37460   Biso      1.000     H          0.10758599999999999           
         H17       1.0000    0.63750   0.26890   0.56050   Biso      1.000     H          0.141534  
         H18       1.0000    0.52190   0.37270   0.55220   Biso      1.000     H          0.149115  
         H19       1.0000    0.27070   0.21590   0.53840   Biso      1.000     H          0.11168299999999999           
         H20       1.0000    0.40460   0.12260   0.53560   Biso      1.000     H          0.11070799999999999           
         H21       1.0000    0.26840   0.11460   0.13330   Biso      1.000     H          0.113593  
         H22       1.0000    0.75040   0.20180   0.31250   Biso      1.000     H          0.112444  
         H23       1.0000    0.74960   0.79820   0.81250   Biso      1.000     H          0.112444  
         H24       1.0000    0.25040   0.20180   0.18750   Biso      1.000     H          0.112444  
         H25       1.0000    0.90460   0.12260   0.96440   Biso      1.000     H          0.11070899999999999           
         H26       1.0000    0.06270   0.06520   0.23610   Biso      1.000     H          0.154835  
         H27       1.0000    0.99860   0.99440   0.17750   Biso      1.000     H          0.158133  
         H28       1.0000    0.70310   0.39020   0.22020   Biso      1.000     H          0.14571900000000002           
         H29       1.0000    0.59820   0.37140   0.16020   Biso      1.000     H          0.158859  
         H30       1.0000    0.91130   0.48400   0.18220   Biso      1.000     H          0.10468   
         H31       1.0000    0.80390   0.51650   0.12540   Biso      1.000     H          0.10758499999999999           
         H32       1.0000    0.13750   0.26890   0.93950   Biso      1.000     H          0.141534  
         H33       1.0000    0.02190   0.37270   0.94780   Biso      1.000     H          0.149115  
         H34       1.0000    0.77070   0.21590   0.96160   Biso      1.000     H          0.11168199999999999           
         H35       1.0000    0.50140   0.00560   0.67750   Biso      1.000     H          0.158133  
         H36       1.0000    0.93730   0.93480   0.76390   Biso      1.000     H          0.154835  
         H37       1.0000    0.43730   0.93480   0.73610   Biso      1.000     H          0.154835  
         H38       1.0000    0.23160   0.88540   0.63330   Biso      1.000     H          0.113593  
         H39       1.0000    0.79690   0.60980   0.72020   Biso      1.000     H          0.14571900000000002           
         H40       1.0000    0.90180   0.62860   0.66020   Biso      1.000     H          0.158859  
         H41       1.0000    0.58870   0.51600   0.68220   Biso      1.000     H          0.10468   
         H42       1.0000    0.69610   0.48350   0.62540   Biso      1.000     H          0.10758499999999999           
         H43       1.0000    0.36250   0.73110   0.43950   Biso      1.000     H          0.141534  
         H44       1.0000    0.47810   0.62730   0.44780   Biso      1.000     H          0.149115  
         H45       1.0000    0.72930   0.78410   0.46160   Biso      1.000     H          0.11168299999999999           
         H46       1.0000    0.59540   0.87740   0.46440   Biso      1.000     H          0.11070799999999999           
         H47       1.0000    0.00140   0.00560   0.82250   Biso      1.000     H          0.158133  
         H48       1.0000    0.24960   0.79820   0.68750   Biso      1.000     H          0.112444  
         N1        1.0000    0.44640   0.80340   0.62770   Biso      1.000     N          -0.23237399999999997          
         N2        1.0000    0.91620   0.23010   0.03650   Biso      1.000     N          -0.23435  
         N3        1.0000    0.05360   0.19660   0.12770   Biso      1.000     N          -0.23237399999999997          
         N4        1.0000    0.66300   0.68100   0.62370   Biso      1.000     N          -0.326723           
         N5        1.0000    0.83700   0.31900   0.12370   Biso      1.000     N          -0.326723           
         N6        1.0000    0.58380   0.76990   0.53650   Biso      1.000     N          -0.23434899999999997          
         N7        1.0000    0.55360   0.19660   0.37230   Biso      1.000     N          -0.23237399999999997          
         N8        1.0000    0.16300   0.68100   0.87630   Biso      1.000     N          -0.326723           
         N9        1.0000    0.08380   0.76990   0.96350   Biso      1.000     N          -0.23435  
         N10       1.0000    0.33700   0.31900   0.37630   Biso      1.000     N          -0.326723           
         N11       1.0000    0.41620   0.23010   0.46350   Biso      1.000     N          -0.23435  
         N12       1.0000    0.94640   0.80340   0.87230   Biso      1.000     N          -0.23237399999999997          
         O1        1.0000    0.37320   0.89040   0.54130   Biso      1.000     O          -0.47195  
         O2        1.0000    0.77100   0.63300   0.53360   Biso      1.000     O          -0.48562799999999995          
         O3        1.0000    0.41630   0.73920   0.33100   Biso      1.000     O          -0.6934239999999999           
         O4        1.0000    0.68790   0.70890   0.35660   Biso      1.000     O          -0.6793399999999999           
         O5        1.0000    0.08630   0.47720   0.68420   Biso      1.000     O          -0.591917           
         O6        1.0000    0.86480   0.38960   0.73690   Biso      1.000     O          -0.776882           
         O7        1.0000    0.33030   0.13890   0.75160   Biso      1.000     O          -0.786363           
         O8        1.0000    0.12680   0.10960   0.04130   Biso      1.000     O          -0.47195  
         O9        1.0000    0.96000   0.27580   0.21230   Biso      1.000     O          -0.476394           
         O10       1.0000    0.72900   0.36700   0.03360   Biso      1.000     O          -0.48562799999999995          
         O11       1.0000    0.08370   0.26080   0.83100   Biso      1.000     O          -0.6934239999999999           
         O12       1.0000    0.81210   0.29110   0.85660   Biso      1.000     O          -0.6793399999999999           
         O13       1.0000    0.41370   0.52280   0.18420   Biso      1.000     O          -0.591917           
         O14       1.0000    0.63520   0.61040   0.23690   Biso      1.000     O          -0.776882           
         O15       1.0000    0.54000   0.72420   0.71230   Biso      1.000     O          -0.476394           
         O16       1.0000    0.13710   0.05770   0.68560   Biso      1.000     O          -0.598082           
         O17       1.0000    0.63710   0.05770   0.81440   Biso      1.000     O          -0.598082           
         O18       1.0000    0.16970   0.86110   0.25160   Biso      1.000     O          -0.786363           
         O19       1.0000    0.36480   0.38960   0.76310   Biso      1.000     O          -0.776882           
         O20       1.0000    0.46000   0.27580   0.28770   Biso      1.000     O          -0.476394           
         O21       1.0000    0.62680   0.10960   0.45870   Biso      1.000     O          -0.47195  
         O22       1.0000    0.22900   0.36700   0.46640   Biso      1.000     O          -0.48562799999999995          
         O23       1.0000    0.58370   0.26080   0.66900   Biso      1.000     O          -0.6934239999999999           
         O24       1.0000    0.31210   0.29110   0.64340   Biso      1.000     O          -0.6793399999999999           
         O25       1.0000    0.91370   0.52280   0.31580   Biso      1.000     O          -0.591917           
         O26       1.0000    0.13520   0.61040   0.26310   Biso      1.000     O          -0.776882           
         O27       1.0000    0.66970   0.86110   0.24840   Biso      1.000     O          -0.786363           
         O28       1.0000    0.86290   0.94230   0.31440   Biso      1.000     O          -0.598082           
         O29       1.0000    0.04000   0.72420   0.78770   Biso      1.000     O          -0.476394           
         O30       1.0000    0.87320   0.89040   0.95870   Biso      1.000     O          -0.47195  
         O31       1.0000    0.27100   0.63300   0.96640   Biso      1.000     O          -0.48562799999999995          
         O32       1.0000    0.91630   0.73920   0.16900   Biso      1.000     O          -0.6934239999999999           
         O33       1.0000    0.18790   0.70890   0.14340   Biso      1.000     O          -0.6793399999999999           
         O34       1.0000    0.58630   0.47720   0.81580   Biso      1.000     O          -0.591917           
         O35       1.0000    0.83030   0.13890   0.74840   Biso      1.000     O          -0.786363           
         O36       1.0000    0.36290   0.94230   0.18560   Biso      1.000     O          -0.598082 