
##########################################################################
#               Crystallographic Information Format file
#               Produced by PyCifRW module
#
#  This is a CIF file.  CIF has been adopted by the International
#  Union of Crystallography as the standard for data archiving and
#  transmission.
#
#  For information on this file format, follow the CIF links at
#  http://www.iucr.org
##########################################################################

data_image0

_cell_length_a                          13.3819
_cell_length_b                          13.3819
_cell_length_c                          14.933
_cell_angle_alpha                       90
_cell_angle_beta                        90
_cell_angle_gamma                       120
_symmetry_space_group_name_H-M          'P 1'
_symmetry_int_tables_number             1
loop_
  _symmetry_equiv_pos_as_xyz
         'x, y, z' 
loop_
  _atom_site_label
  _atom_site_occupancy
  _atom_site_fract_x
  _atom_site_fract_y
  _atom_site_fract_z
  _atom_site_thermal_displace_type
  _atom_site_B_iso_or_equiv
  _atom_site_type_symbol
  _atom_site_charge
         C1        1.0000    0.44440   0.33280   0.13670   Biso      1.000     C          -0.25524  
         C2        1.0000    0.27010   0.82010   0.06710   Biso      1.000     C          0.640706  
         C3        1.0000    0.34930   0.25350   0.99180   Biso      1.000     C          -0.24443600000000001          
         C4        1.0000    0.45000   0.27010   0.93290   Biso      1.000     C          0.6407069999999999  
         C5        1.0000    0.87860   0.44000   0.15630   Biso      1.000     C          0.672895  
         C6        1.0000    0.88840   0.55560   0.13670   Biso      1.000     C          -0.25524  
         C7        1.0000    0.90420   0.65070   0.99180   Biso      1.000     C          -0.24443499999999999          
         C8        1.0000    0.82010   0.55000   0.93290   Biso      1.000     C          0.640704  
         C9        1.0000    0.44000   0.87860   0.34370   Biso      1.000     C          0.672891  
         C10       1.0000    0.56000   0.43860   0.15630   Biso      1.000     C          0.6729    
         C11       1.0000    0.55560   0.88840   0.36330   Biso      1.000     C          -0.255237           
         C12       1.0000    0.55000   0.82010   0.56710   Biso      1.000     C          0.640706  
         C13       1.0000    0.12140   0.56140   0.34370   Biso      1.000     C          0.672901  
         C14       1.0000    0.11160   0.66720   0.36330   Biso      1.000     C          -0.255237           
         C15       1.0000    0.09580   0.74650   0.50820   Biso      1.000     C          -0.24444000000000002          
         C16       1.0000    0.17990   0.72990   0.56710   Biso      1.000     C          0.6407079999999999  
         C17       1.0000    0.43860   0.56000   0.34370   Biso      1.000     C          0.672896  
         C18       1.0000    0.33280   0.44440   0.36330   Biso      1.000     C          -0.255241           
         C19       1.0000    0.25350   0.34930   0.50820   Biso      1.000     C          -0.24443800000000002          
         C20       1.0000    0.65070   0.90420   0.50820   Biso      1.000     C          -0.244437           
         C21       1.0000    0.72990   0.17990   0.93290   Biso      1.000     C          0.6407069999999999  
         C22       1.0000    0.74650   0.09580   0.99180   Biso      1.000     C          -0.24443800000000002          
         C23       1.0000    0.66720   0.11160   0.13670   Biso      1.000     C          -0.255239           
         C24       1.0000    0.65070   0.74650   0.00820   Biso      1.000     C          -0.24443499999999999          
         C25       1.0000    0.55000   0.72990   0.06710   Biso      1.000     C          0.640706  
         C26       1.0000    0.12140   0.56000   0.84370   Biso      1.000     C          0.672896  
         C27       1.0000    0.11160   0.44440   0.86330   Biso      1.000     C          -0.25524  
         C28       1.0000    0.09580   0.34930   0.00820   Biso      1.000     C          -0.24443800000000002          
         C29       1.0000    0.17990   0.45000   0.06710   Biso      1.000     C          0.640705  
         C30       1.0000    0.56000   0.12140   0.65630   Biso      1.000     C          0.672891  
         C31       1.0000    0.44440   0.11160   0.63670   Biso      1.000     C          -0.255238           
         C32       1.0000    0.34930   0.09580   0.49180   Biso      1.000     C          -0.244441           
         C33       1.0000    0.45000   0.17990   0.43290   Biso      1.000     C          0.6407069999999999  
         C34       1.0000    0.87860   0.43860   0.65630   Biso      1.000     C          0.672901  
         C35       1.0000    0.88840   0.33280   0.63670   Biso      1.000     C          -0.255237           
         C36       1.0000    0.90420   0.25350   0.49180   Biso      1.000     C          -0.244439           
         C37       1.0000    0.82010   0.27010   0.43290   Biso      1.000     C          0.6407069999999999  
         C38       1.0000    0.56140   0.44000   0.65630   Biso      1.000     C          0.672895  
         C39       1.0000    0.66720   0.55560   0.63670   Biso      1.000     C          -0.25524  
         C40       1.0000    0.74650   0.65070   0.49180   Biso      1.000     C          -0.24443600000000001          
         C41       1.0000    0.72990   0.55000   0.43290   Biso      1.000     C          0.640705  
         C42       1.0000    0.56140   0.12140   0.15630   Biso      1.000     C          0.672892  
         C43       1.0000    0.27010   0.45000   0.56710   Biso      1.000     C          0.640706  
         C44       1.0000    0.55560   0.66720   0.86330   Biso      1.000     C          -0.255238           
         C45       1.0000    0.44000   0.56140   0.84370   Biso      1.000     C          0.672901  
         C46       1.0000    0.43860   0.87860   0.84370   Biso      1.000     C          0.672892  
         C47       1.0000    0.33280   0.88840   0.86330   Biso      1.000     C          -0.25524  
         C48       1.0000    0.25350   0.90420   0.00820   Biso      1.000     C          -0.24443800000000002          
         Cu1       1.0000    0.50000   0.50000   0.50000   Biso      1.000     Cu          0.774213  
         Cu2       1.0000    0.00000   0.50000   0.50000   Biso      1.000     Cu          0.7742100000000001  
         Cu3       1.0000    0.50000   0.00000   0.50000   Biso      1.000     Cu          0.774216  
         Cu4       1.0000    0.00000   0.50000   0.00000   Biso      1.000     Cu          0.774212  
         Cu5       1.0000    0.50000   0.50000   0.00000   Biso      1.000     Cu          0.774211  
         Cu6       1.0000    0.50000   0.00000   0.00000   Biso      1.000     Cu          0.774217  
         H1        1.0000    0.85360   0.19960   0.53620   Biso      1.000     H          0.132508  
         H2        1.0000    0.60520   0.93470   0.31580   Biso      1.000     H          0.15482   
         H3        1.0000    0.67300   0.02610   0.42460   Biso      1.000     H          0.263953  
         H4        1.0000    0.85360   0.65400   0.03620   Biso      1.000     H          0.13250499999999998           
         H5        1.0000    0.95810   0.71640   0.95740   Biso      1.000     H          0.159917  
         H6        1.0000    0.28360   0.24170   0.95740   Biso      1.000     H          0.159917  
         H7        1.0000    0.93470   0.60520   0.18420   Biso      1.000     H          0.154818  
         H8        1.0000    0.02610   0.67300   0.07540   Biso      1.000     H          0.263954  
         H9        1.0000    0.34600   0.19960   0.03620   Biso      1.000     H          0.13250499999999998           
         H10       1.0000    0.54070   0.81290   0.37980   Biso      1.000     H          0.154649  
         H11       1.0000    0.81290   0.54070   0.12020   Biso      1.000     H          0.15465   
         H12       1.0000    0.71640   0.95810   0.54260   Biso      1.000     H          0.15992   
         H13       1.0000    0.04190   0.75830   0.54260   Biso      1.000     H          0.15993   
         H14       1.0000    0.97390   0.64690   0.42460   Biso      1.000     H          0.263954  
         H15       1.0000    0.06530   0.67050   0.31580   Biso      1.000     H          0.154823  
         H16       1.0000    0.18710   0.72780   0.37980   Biso      1.000     H          0.15465299999999998           
         H17       1.0000    0.45930   0.27220   0.12020   Biso      1.000     H          0.154651  
         H18       1.0000    0.14640   0.80040   0.46380   Biso      1.000     H          0.132509  
         H19       1.0000    0.35310   0.32700   0.42460   Biso      1.000     H          0.263955  
         H20       1.0000    0.32950   0.39480   0.31580   Biso      1.000     H          0.154823  
         H21       1.0000    0.27220   0.45930   0.37980   Biso      1.000     H          0.154649  
         H22       1.0000    0.24170   0.28360   0.54260   Biso      1.000     H          0.159929  
         H23       1.0000    0.19960   0.34600   0.46380   Biso      1.000     H          0.13250699999999999           
         H24       1.0000    0.65400   0.85360   0.46380   Biso      1.000     H          0.132503  
         H25       1.0000    0.64690   0.67300   0.57540   Biso      1.000     H          0.263954  
         H26       1.0000    0.39480   0.32950   0.18420   Biso      1.000     H          0.154819  
         H27       1.0000    0.80040   0.14640   0.03620   Biso      1.000     H          0.13250499999999998           
         H28       1.0000    0.95810   0.24170   0.45740   Biso      1.000     H          0.159924  
         H29       1.0000    0.81290   0.27220   0.62020   Biso      1.000     H          0.15465299999999998           
         H30       1.0000    0.93470   0.32950   0.68420   Biso      1.000     H          0.15482200000000002           
         H31       1.0000    0.02610   0.35310   0.57540   Biso      1.000     H          0.263953  
         H32       1.0000    0.34600   0.14640   0.53620   Biso      1.000     H          0.13250599999999998           
         H33       1.0000    0.28360   0.04190   0.45740   Biso      1.000     H          0.159929  
         H34       1.0000    0.45930   0.18710   0.62020   Biso      1.000     H          0.154649  
         H35       1.0000    0.39480   0.06530   0.68420   Biso      1.000     H          0.15482100000000001           
         H36       1.0000    0.32700   0.97390   0.57540   Biso      1.000     H          0.263953  
         H37       1.0000    0.14640   0.34600   0.96380   Biso      1.000     H          0.132508  
         H38       1.0000    0.67050   0.60520   0.68420   Biso      1.000     H          0.154818  
         H39       1.0000    0.18710   0.45930   0.87980   Biso      1.000     H          0.154651  
         H40       1.0000    0.06530   0.39480   0.81580   Biso      1.000     H          0.15482200000000002           
         H41       1.0000    0.97390   0.32700   0.92460   Biso      1.000     H          0.263955  
         H42       1.0000    0.65400   0.80040   0.96380   Biso      1.000     H          0.13250399999999998           
         H43       1.0000    0.71640   0.75830   0.04260   Biso      1.000     H          0.159916  
         H44       1.0000    0.54070   0.72780   0.87980   Biso      1.000     H          0.15465   
         H45       1.0000    0.75830   0.04190   0.95740   Biso      1.000     H          0.159922  
         H46       1.0000    0.72780   0.18710   0.12020   Biso      1.000     H          0.154649  
         H47       1.0000    0.67050   0.06530   0.18420   Biso      1.000     H          0.15482100000000001           
         H48       1.0000    0.64690   0.97390   0.07540   Biso      1.000     H          0.263954  
         H49       1.0000    0.80040   0.65400   0.53620   Biso      1.000     H          0.13250499999999998           
         H50       1.0000    0.75830   0.71640   0.45740   Biso      1.000     H          0.15992   
         H51       1.0000    0.32700   0.35310   0.07540   Biso      1.000     H          0.26395100000000005           
         H52       1.0000    0.72780   0.54070   0.62020   Biso      1.000     H          0.154648  
         H53       1.0000    0.32950   0.93470   0.81580   Biso      1.000     H          0.15482200000000002           
         H54       1.0000    0.27220   0.81290   0.87980   Biso      1.000     H          0.154649  
         H55       1.0000    0.24170   0.95810   0.04260   Biso      1.000     H          0.159923  
         H56       1.0000    0.19960   0.85360   0.96380   Biso      1.000     H          0.13250499999999998           
         H57       1.0000    0.67300   0.64690   0.92460   Biso      1.000     H          0.263952  
         H58       1.0000    0.60520   0.67050   0.81580   Biso      1.000     H          0.154818  
         H59       1.0000    0.35310   0.02610   0.92460   Biso      1.000     H          0.263954  
         H60       1.0000    0.04190   0.28360   0.04260   Biso      1.000     H          0.159928  
         La1       1.0000    0.33333   0.66666   0.67018   Biso      1.000     La          1.860175  
         La2       1.0000    0.33333   0.66666   0.17018   Biso      1.000     La          1.8601740000000002  
         La3       1.0000    0.66667   0.33334   0.32982   Biso      1.000     La          1.86017   
         La4       1.0000    0.66667   0.33334   0.82982   Biso      1.000     La          1.860168  
         N1        1.0000    0.34890   0.96130   0.94300   Biso      1.000     N          -0.311918           
         N2        1.0000    0.61240   0.65110   0.94300   Biso      1.000     N          -0.311919           
         N3        1.0000    0.38760   0.03870   0.55700   Biso      1.000     N          -0.311918           
         N4        1.0000    0.96130   0.34890   0.55700   Biso      1.000     N          -0.311919           
         N5        1.0000    0.65110   0.61240   0.55700   Biso      1.000     N          -0.311917           
         N6        1.0000    0.03870   0.38760   0.94300   Biso      1.000     N          -0.311917           
         N7        1.0000    0.38760   0.34890   0.05700   Biso      1.000     N          -0.311919           
         N8        1.0000    0.96130   0.61240   0.05700   Biso      1.000     N          -0.311918           
         N9        1.0000    0.61240   0.96130   0.44300   Biso      1.000     N          -0.311918           
         N10       1.0000    0.03870   0.65110   0.44300   Biso      1.000     N          -0.311917           
         N11       1.0000    0.34890   0.38760   0.44300   Biso      1.000     N          -0.31191599999999997          
         N12       1.0000    0.65110   0.03870   0.05700   Biso      1.000     N          -0.311918           
         O1        1.0000    0.43440   0.23990   0.37700   Biso      1.000     O          -0.594838           
         O2        1.0000    0.80550   0.56560   0.37700   Biso      1.000     O          -0.594821           
         O3        1.0000    0.47750   0.40170   0.60360   Biso      1.000     O          -0.5279699999999999           
         O4        1.0000    0.56280   0.38710   0.72410   Biso      1.000     O          -0.617525           
         O5        1.0000    0.81780   0.36230   0.44220   Biso      1.000     O          -0.63471  
         O6        1.0000    0.76010   0.19450   0.37700   Biso      1.000     O          -0.594825           
         O7        1.0000    0.92420   0.52250   0.60360   Biso      1.000     O          -0.527967           
         O8        1.0000    0.82430   0.43720   0.72410   Biso      1.000     O          -0.617529           
         O9        1.0000    0.54450   0.18220   0.44220   Biso      1.000     O          -0.6347   
         O10       1.0000    0.59830   0.07580   0.60360   Biso      1.000     O          -0.5279729999999999           
         O11       1.0000    0.40170   0.47750   0.89640   Biso      1.000     O          -0.5279699999999999           
         O12       1.0000    0.18220   0.54450   0.05780   Biso      1.000     O          -0.634704           
         O13       1.0000    0.23990   0.43440   0.12300   Biso      1.000     O          -0.594819           
         O14       1.0000    0.07580   0.59830   0.89640   Biso      1.000     O          -0.527965           
         O15       1.0000    0.17570   0.61290   0.77590   Biso      1.000     O          -0.617527           
         O16       1.0000    0.45550   0.63770   0.05780   Biso      1.000     O          -0.6347119999999999           
         O17       1.0000    0.56560   0.80550   0.12300   Biso      1.000     O          -0.594828           
         O18       1.0000    0.63770   0.45550   0.44220   Biso      1.000     O          -0.634705           
         O19       1.0000    0.38710   0.56280   0.77590   Biso      1.000     O          -0.6175350000000001           
         O20       1.0000    0.36230   0.81780   0.05780   Biso      1.000     O          -0.6347   
         O21       1.0000    0.19450   0.76010   0.12300   Biso      1.000     O          -0.594839           
         O22       1.0000    0.61290   0.17570   0.72410   Biso      1.000     O          -0.6175069999999999           
         O23       1.0000    0.56280   0.17570   0.22410   Biso      1.000     O          -0.617508           
         O24       1.0000    0.54450   0.36230   0.94220   Biso      1.000     O          -0.63471  
         O25       1.0000    0.80550   0.23990   0.87700   Biso      1.000     O          -0.5948399999999999           
         O26       1.0000    0.36230   0.54450   0.55780   Biso      1.000     O          -0.634703           
         O27       1.0000    0.19450   0.43440   0.62300   Biso      1.000     O          -0.594819           
         O28       1.0000    0.52250   0.59830   0.39640   Biso      1.000     O          -0.5279659999999999           
         O29       1.0000    0.43720   0.61290   0.27590   Biso      1.000     O          -0.617525           
         O30       1.0000    0.18220   0.63770   0.55780   Biso      1.000     O          -0.634709           
         O31       1.0000    0.23990   0.80550   0.62300   Biso      1.000     O          -0.594823           
         O32       1.0000    0.07580   0.47750   0.39640   Biso      1.000     O          -0.527967           
         O33       1.0000    0.17570   0.56280   0.27590   Biso      1.000     O          -0.61753  
         O34       1.0000    0.45550   0.81780   0.55780   Biso      1.000     O          -0.634702           
         O35       1.0000    0.56560   0.76010   0.62300   Biso      1.000     O          -0.594837           
         O36       1.0000    0.40170   0.92420   0.39640   Biso      1.000     O          -0.5279739999999999           
         O37       1.0000    0.38710   0.82430   0.27590   Biso      1.000     O          -0.6175069999999999           
         O38       1.0000    0.81780   0.45550   0.94220   Biso      1.000     O          -0.634705           
         O39       1.0000    0.76010   0.56560   0.87700   Biso      1.000     O          -0.5948220000000001           
         O40       1.0000    0.92420   0.40170   0.10360   Biso      1.000     O          -0.527968           
         O41       1.0000    0.82430   0.38710   0.22410   Biso      1.000     O          -0.617527           
         O42       1.0000    0.52250   0.92420   0.89640   Biso      1.000     O          -0.527971           
         O43       1.0000    0.43440   0.19450   0.87700   Biso      1.000     O          -0.59483  
         O44       1.0000    0.59830   0.52250   0.10360   Biso      1.000     O          -0.5279699999999999           
         O45       1.0000    0.61290   0.43720   0.22410   Biso      1.000     O          -0.617534           
         O46       1.0000    0.63770   0.18220   0.94220   Biso      1.000     O          -0.634699           
         O47       1.0000    0.47750   0.07580   0.10360   Biso      1.000     O          -0.5279729999999999           
         O48       1.0000    0.43720   0.82430   0.77590   Biso      1.000     O          -0.6175069999999999 