
##########################################################################
#               Crystallographic Information Format file
#               Produced by PyCifRW module
#
#  This is a CIF file.  CIF has been adopted by the International
#  Union of Crystallography as the standard for data archiving and
#  transmission.
#
#  For information on this file format, follow the CIF links at
#  http://www.iucr.org
##########################################################################

data_image0

_cell_length_a                          13.5039
_cell_length_b                          13.5039
_cell_length_c                          14.897
_cell_angle_alpha                       90
_cell_angle_beta                        90
_cell_angle_gamma                       120
_symmetry_space_group_name_H-M          'P 1'
_symmetry_int_tables_number             1
loop_
  _symmetry_equiv_pos_as_xyz
         'x, y, z' 
loop_
  _atom_site_label
  _atom_site_occupancy
  _atom_site_fract_x
  _atom_site_fract_y
  _atom_site_fract_z
  _atom_site_thermal_displace_type
  _atom_site_B_iso_or_equiv
  _atom_site_type_symbol
  _atom_site_charge
         C1        1.0000    0.11290   0.66700   0.86380   Biso      1.000     C          -0.252867           
         C2        1.0000    0.72700   0.54710   0.93380   Biso      1.000     C          0.639133  
         C3        1.0000    0.09590   0.74390   0.00900   Biso      1.000     C          -0.24184  
         C4        1.0000    0.17990   0.72700   0.06620   Biso      1.000     C          0.639141  
         C5        1.0000    0.43960   0.87880   0.84310   Biso      1.000     C          0.668087  
         C6        1.0000    0.55410   0.88710   0.86380   Biso      1.000     C          -0.252857           
         C7        1.0000    0.64800   0.90410   0.00900   Biso      1.000     C          -0.241833           
         C8        1.0000    0.54710   0.82010   0.06620   Biso      1.000     C          0.639133  
         C9        1.0000    0.87880   0.43960   0.65690   Biso      1.000     C          0.6681020000000001  
         C10       1.0000    0.12120   0.56080   0.84310   Biso      1.000     C          0.6681060000000001  
         C11       1.0000    0.88710   0.55410   0.63620   Biso      1.000     C          -0.252857           
         C12       1.0000    0.82010   0.54710   0.43380   Biso      1.000     C          0.639135  
         C13       1.0000    0.56040   0.43920   0.65690   Biso      1.000     C          0.6681010000000001  
         C14       1.0000    0.44590   0.33300   0.63620   Biso      1.000     C          -0.252868           
         C15       1.0000    0.35200   0.25610   0.49100   Biso      1.000     C          -0.24184499999999998          
         C16       1.0000    0.45290   0.27300   0.43380   Biso      1.000     C          0.639137  
         C17       1.0000    0.56080   0.12120   0.65690   Biso      1.000     C          0.668095  
         C18       1.0000    0.66700   0.11290   0.63620   Biso      1.000     C          -0.25285599999999997          
         C19       1.0000    0.74390   0.09590   0.49100   Biso      1.000     C          -0.241831           
         C20       1.0000    0.90410   0.64800   0.49100   Biso      1.000     C          -0.241838           
         C21       1.0000    0.27300   0.45290   0.06620   Biso      1.000     C          0.639134  
         C22       1.0000    0.25610   0.35200   0.00900   Biso      1.000     C          -0.241838           
         C23       1.0000    0.33300   0.44590   0.86380   Biso      1.000     C          -0.252863           
         C24       1.0000    0.90410   0.25610   0.99100   Biso      1.000     C          -0.24184  
         C25       1.0000    0.82010   0.27300   0.93380   Biso      1.000     C          0.639141  
         C26       1.0000    0.56040   0.12120   0.15690   Biso      1.000     C          0.668086  
         C27       1.0000    0.44590   0.11290   0.13620   Biso      1.000     C          -0.252857           
         C28       1.0000    0.35200   0.09590   0.99100   Biso      1.000     C          -0.241833           
         C29       1.0000    0.45290   0.17990   0.93380   Biso      1.000     C          0.639133  
         C30       1.0000    0.12120   0.56040   0.34310   Biso      1.000     C          0.6681020000000001  
         C31       1.0000    0.11290   0.44590   0.36380   Biso      1.000     C          -0.252857           
         C32       1.0000    0.09590   0.35200   0.50900   Biso      1.000     C          -0.241838           
         C33       1.0000    0.17990   0.45290   0.56620   Biso      1.000     C          0.6391359999999999  
         C34       1.0000    0.43960   0.56080   0.34310   Biso      1.000     C          0.6681010000000001  
         C35       1.0000    0.55410   0.66700   0.36380   Biso      1.000     C          -0.252867           
         C36       1.0000    0.64800   0.74390   0.50900   Biso      1.000     C          -0.241844           
         C37       1.0000    0.54710   0.72700   0.56620   Biso      1.000     C          0.639138  
         C38       1.0000    0.43920   0.87880   0.34310   Biso      1.000     C          0.668095  
         C39       1.0000    0.33300   0.88710   0.36380   Biso      1.000     C          -0.25285599999999997          
         C40       1.0000    0.25610   0.90410   0.50900   Biso      1.000     C          -0.241831           
         C41       1.0000    0.27300   0.82010   0.56620   Biso      1.000     C          0.639129  
         C42       1.0000    0.43920   0.56040   0.84310   Biso      1.000     C          0.668103  
         C43       1.0000    0.72700   0.17990   0.43380   Biso      1.000     C          0.639129  
         C44       1.0000    0.88710   0.33300   0.13620   Biso      1.000     C          -0.252867           
         C45       1.0000    0.87880   0.43920   0.15690   Biso      1.000     C          0.6681050000000001  
         C46       1.0000    0.56080   0.43960   0.15690   Biso      1.000     C          0.668103  
         C47       1.0000    0.66700   0.55410   0.13620   Biso      1.000     C          -0.252863           
         C48       1.0000    0.74390   0.64800   0.99100   Biso      1.000     C          -0.241837           
         Cu1       1.0000    0.50000   0.00000   0.50000   Biso      1.000     Cu          0.770123  
         Cu2       1.0000    0.50000   0.50000   0.50000   Biso      1.000     Cu          0.769846  
         Cu3       1.0000    0.00000   0.50000   0.50000   Biso      1.000     Cu          0.769939  
         Cu4       1.0000    0.50000   0.00000   0.00000   Biso      1.000     Cu          0.769962  
         Cu5       1.0000    0.00000   0.50000   0.00000   Biso      1.000     Cu          0.7699229999999999  
         Cu6       1.0000    0.50000   0.50000   0.00000   Biso      1.000     Cu          0.769948  
         H1        1.0000    0.65650   0.79940   0.46600   Biso      1.000     H          0.13218   
         H2        1.0000    0.93220   0.60250   0.68410   Biso      1.000     H          0.152186  
         H3        1.0000    0.02320   0.67110   0.57580   Biso      1.000     H          0.26443   
         H4        1.0000    0.65650   0.85710   0.96600   Biso      1.000     H          0.132203  
         H5        1.0000    0.71120   0.95750   0.04550   Biso      1.000     H          0.159105  
         H6        1.0000    0.04250   0.75370   0.04550   Biso      1.000     H          0.159093  
         H7        1.0000    0.60250   0.93220   0.81590   Biso      1.000     H          0.152185  
         H8        1.0000    0.67110   0.02320   0.92420   Biso      1.000     H          0.264433  
         H9        1.0000    0.14290   0.79940   0.96600   Biso      1.000     H          0.132196  
         H10       1.0000    0.81100   0.53720   0.62010   Biso      1.000     H          0.155275  
         H11       1.0000    0.53720   0.81100   0.87990   Biso      1.000     H          0.155271  
         H12       1.0000    0.95750   0.71120   0.45450   Biso      1.000     H          0.159093  
         H13       1.0000    0.28880   0.24630   0.45450   Biso      1.000     H          0.159089  
         H14       1.0000    0.32890   0.35210   0.57580   Biso      1.000     H          0.264415  
         H15       1.0000    0.39750   0.32970   0.68410   Biso      1.000     H          0.152176  
         H16       1.0000    0.46280   0.27380   0.62010   Biso      1.000     H          0.155252  
         H17       1.0000    0.18900   0.72620   0.87990   Biso      1.000     H          0.15526800000000002           
         H18       1.0000    0.34350   0.20060   0.53400   Biso      1.000     H          0.13218   
         H19       1.0000    0.64790   0.97680   0.57580   Biso      1.000     H          0.26445599999999997           
         H20       1.0000    0.67030   0.06780   0.68410   Biso      1.000     H          0.15220999999999998           
         H21       1.0000    0.72620   0.18900   0.62010   Biso      1.000     H          0.15528499999999998           
         H22       1.0000    0.75370   0.04250   0.45450   Biso      1.000     H          0.159122  
         H23       1.0000    0.79940   0.14290   0.53400   Biso      1.000     H          0.132222  
         H24       1.0000    0.85710   0.65650   0.53400   Biso      1.000     H          0.132205  
         H25       1.0000    0.35210   0.02320   0.42420   Biso      1.000     H          0.26445599999999997           
         H26       1.0000    0.06780   0.67030   0.81590   Biso      1.000     H          0.15218299999999998           
         H27       1.0000    0.20060   0.34350   0.96600   Biso      1.000     H          0.132201  
         H28       1.0000    0.71120   0.75370   0.54550   Biso      1.000     H          0.159088  
         H29       1.0000    0.53720   0.72620   0.37990   Biso      1.000     H          0.155252  
         H30       1.0000    0.60250   0.67030   0.31590   Biso      1.000     H          0.152176  
         H31       1.0000    0.67110   0.64790   0.42420   Biso      1.000     H          0.264415  
         H32       1.0000    0.14290   0.34350   0.46600   Biso      1.000     H          0.132206  
         H33       1.0000    0.04250   0.28880   0.54550   Biso      1.000     H          0.159093  
         H34       1.0000    0.18900   0.46280   0.37990   Biso      1.000     H          0.155275  
         H35       1.0000    0.06780   0.39750   0.31590   Biso      1.000     H          0.152186  
         H36       1.0000    0.97680   0.32890   0.42420   Biso      1.000     H          0.26443   
         H37       1.0000    0.34350   0.14290   0.03400   Biso      1.000     H          0.132203  
         H38       1.0000    0.32970   0.93220   0.31590   Biso      1.000     H          0.15220999999999998           
         H39       1.0000    0.46280   0.18900   0.12010   Biso      1.000     H          0.155271  
         H40       1.0000    0.39750   0.06780   0.18410   Biso      1.000     H          0.152185  
         H41       1.0000    0.32890   0.97680   0.07580   Biso      1.000     H          0.264433  
         H42       1.0000    0.85710   0.20060   0.03400   Biso      1.000     H          0.132196  
         H43       1.0000    0.95750   0.24630   0.95450   Biso      1.000     H          0.159093  
         H44       1.0000    0.81100   0.27380   0.12010   Biso      1.000     H          0.15526800000000002           
         H45       1.0000    0.24630   0.28880   0.04550   Biso      1.000     H          0.15909500000000001           
         H46       1.0000    0.27380   0.46280   0.87990   Biso      1.000     H          0.15526900000000002           
         H47       1.0000    0.32970   0.39750   0.81590   Biso      1.000     H          0.15218800000000002           
         H48       1.0000    0.35210   0.32890   0.92420   Biso      1.000     H          0.264434  
         H49       1.0000    0.20060   0.85710   0.46600   Biso      1.000     H          0.132222  
         H50       1.0000    0.24630   0.95750   0.54550   Biso      1.000     H          0.15912300000000001           
         H51       1.0000    0.97680   0.64790   0.92420   Biso      1.000     H          0.264425  
         H52       1.0000    0.27380   0.81100   0.37990   Biso      1.000     H          0.15528499999999998           
         H53       1.0000    0.67030   0.60250   0.18410   Biso      1.000     H          0.15218800000000002           
         H54       1.0000    0.72620   0.53720   0.12010   Biso      1.000     H          0.15526900000000002           
         H55       1.0000    0.75370   0.71120   0.95450   Biso      1.000     H          0.15909500000000001           
         H56       1.0000    0.79940   0.65650   0.03400   Biso      1.000     H          0.132201  
         H57       1.0000    0.02320   0.35210   0.07580   Biso      1.000     H          0.264425  
         H58       1.0000    0.93220   0.32970   0.18410   Biso      1.000     H          0.15218299999999998           
         H59       1.0000    0.64790   0.67110   0.07580   Biso      1.000     H          0.264434  
         H60       1.0000    0.28880   0.04250   0.95450   Biso      1.000     H          0.159105  
         La1       1.0000    0.66667   0.33334   0.33090   Biso      1.000     La          1.8642299999999998  
         La2       1.0000    0.66667   0.33334   0.83090   Biso      1.000     La          1.8642310000000002  
         La3       1.0000    0.33333   0.66666   0.66910   Biso      1.000     La          1.8642330000000003  
         La4       1.0000    0.33333   0.66666   0.16910   Biso      1.000     La          1.8642299999999998  
         N1        1.0000    0.65080   0.61060   0.05730   Biso      1.000     N          -0.30606300000000003          
         N2        1.0000    0.95980   0.34920   0.05730   Biso      1.000     N          -0.30606  
         N3        1.0000    0.04020   0.38940   0.44270   Biso      1.000     N          -0.30606700000000003          
         N4        1.0000    0.61060   0.65080   0.44270   Biso      1.000     N          -0.30609699999999995          
         N5        1.0000    0.34920   0.95980   0.44270   Biso      1.000     N          -0.30601300000000003          
         N6        1.0000    0.38940   0.04020   0.05730   Biso      1.000     N          -0.306056           
         N7        1.0000    0.04020   0.65080   0.94270   Biso      1.000     N          -0.30606  
         N8        1.0000    0.61060   0.95980   0.94270   Biso      1.000     N          -0.306057           
         N9        1.0000    0.95980   0.61060   0.55730   Biso      1.000     N          -0.306066           
         N10       1.0000    0.38940   0.34920   0.55730   Biso      1.000     N          -0.306095           
         N11       1.0000    0.65080   0.04020   0.55730   Biso      1.000     N          -0.306014           
         N12       1.0000    0.34920   0.38940   0.94270   Biso      1.000     N          -0.306064           
         O1        1.0000    0.24090   0.43930   0.62240   Biso      1.000     O          -0.598485           
         O2        1.0000    0.19840   0.75910   0.62240   Biso      1.000     O          -0.598475           
         O3        1.0000    0.52330   0.92600   0.39490   Biso      1.000     O          -0.528227           
         O4        1.0000    0.43690   0.82370   0.27560   Biso      1.000     O          -0.615866           
         O5        1.0000    0.45280   0.63580   0.55620   Biso      1.000     O          -0.633297           
         O6        1.0000    0.56070   0.80160   0.62240   Biso      1.000     O          -0.5985520000000001           
         O7        1.0000    0.40270   0.47670   0.39490   Biso      1.000     O          -0.528327           
         O8        1.0000    0.38680   0.56310   0.27560   Biso      1.000     O          -0.6160220000000001           
         O9        1.0000    0.18300   0.54720   0.55620   Biso      1.000     O          -0.633299           
         O10       1.0000    0.07400   0.59730   0.39490   Biso      1.000     O          -0.5282859999999999           
         O11       1.0000    0.92600   0.52330   0.10510   Biso      1.000     O          -0.528289           
         O12       1.0000    0.54720   0.18300   0.94380   Biso      1.000     O          -0.633314           
         O13       1.0000    0.43930   0.24090   0.87760   Biso      1.000     O          -0.59851  
         O14       1.0000    0.59730   0.07400   0.10510   Biso      1.000     O          -0.528283           
         O15       1.0000    0.61320   0.17630   0.22440   Biso      1.000     O          -0.6159439999999999           
         O16       1.0000    0.81700   0.36420   0.94380   Biso      1.000     O          -0.63331  
         O17       1.0000    0.75910   0.19840   0.87760   Biso      1.000     O          -0.598527           
         O18       1.0000    0.36420   0.81700   0.55620   Biso      1.000     O          -0.633323           
         O19       1.0000    0.82370   0.43690   0.22440   Biso      1.000     O          -0.615985           
         O20       1.0000    0.63580   0.45280   0.94380   Biso      1.000     O          -0.633288           
         O21       1.0000    0.80160   0.56070   0.87760   Biso      1.000     O          -0.598495           
         O22       1.0000    0.17630   0.61320   0.27560   Biso      1.000     O          -0.615983           
         O23       1.0000    0.43690   0.61320   0.77560   Biso      1.000     O          -0.615975           
         O24       1.0000    0.18300   0.63580   0.05620   Biso      1.000     O          -0.63331  
         O25       1.0000    0.19840   0.43930   0.12240   Biso      1.000     O          -0.598495           
         O26       1.0000    0.63580   0.18300   0.44380   Biso      1.000     O          -0.633324           
         O27       1.0000    0.80160   0.24090   0.37760   Biso      1.000     O          -0.598475           
         O28       1.0000    0.47670   0.07400   0.60510   Biso      1.000     O          -0.528227           
         O29       1.0000    0.56310   0.17630   0.72440   Biso      1.000     O          -0.615866           
         O30       1.0000    0.54720   0.36420   0.44380   Biso      1.000     O          -0.633296           
         O31       1.0000    0.43930   0.19840   0.37760   Biso      1.000     O          -0.598549           
         O32       1.0000    0.59730   0.52330   0.60510   Biso      1.000     O          -0.5283260000000001           
         O33       1.0000    0.61320   0.43690   0.72440   Biso      1.000     O          -0.6160220000000001           
         O34       1.0000    0.81700   0.45280   0.44380   Biso      1.000     O          -0.633299           
         O35       1.0000    0.75910   0.56070   0.37760   Biso      1.000     O          -0.598483           
         O36       1.0000    0.92600   0.40270   0.60510   Biso      1.000     O          -0.5282859999999999           
         O37       1.0000    0.82370   0.38680   0.72440   Biso      1.000     O          -0.615983           
         O38       1.0000    0.45280   0.81700   0.05620   Biso      1.000     O          -0.633314           
         O39       1.0000    0.56070   0.75910   0.12240   Biso      1.000     O          -0.598511           
         O40       1.0000    0.40270   0.92600   0.89490   Biso      1.000     O          -0.528283           
         O41       1.0000    0.38680   0.82370   0.77560   Biso      1.000     O          -0.615945           
         O42       1.0000    0.47670   0.40270   0.10510   Biso      1.000     O          -0.528277           
         O43       1.0000    0.24090   0.80160   0.12240   Biso      1.000     O          -0.598527           
         O44       1.0000    0.07400   0.47670   0.89490   Biso      1.000     O          -0.528289           
         O45       1.0000    0.17630   0.56310   0.77560   Biso      1.000     O          -0.615985           
         O46       1.0000    0.36420   0.54720   0.05620   Biso      1.000     O          -0.633288           
         O47       1.0000    0.52330   0.59730   0.89490   Biso      1.000     O          -0.528277           
         O48       1.0000    0.56310   0.38680   0.22440   Biso      1.000     O          -0.615975 