
##########################################################################
#               Crystallographic Information Format file
#               Produced by PyCifRW module
#
#  This is a CIF file.  CIF has been adopted by the International
#  Union of Crystallography as the standard for data archiving and
#  transmission.
#
#  For information on this file format, follow the CIF links at
#  http://www.iucr.org
##########################################################################

data_image0

_cell_length_a                          13.5045
_cell_length_b                          13.5045
_cell_length_c                          14.836
_cell_angle_alpha                       90
_cell_angle_beta                        90
_cell_angle_gamma                       120
_symmetry_space_group_name_H-M          'P 1'
_symmetry_int_tables_number             1
loop_
  _symmetry_equiv_pos_as_xyz
         'x, y, z' 
loop_
  _atom_site_label
  _atom_site_occupancy
  _atom_site_fract_x
  _atom_site_fract_y
  _atom_site_fract_z
  _atom_site_thermal_displace_type
  _atom_site_B_iso_or_equiv
  _atom_site_type_symbol
  _atom_site_charge
         C1        1.0000    0.88720   0.33290   0.36240   Biso      1.000     C          -0.25174  
         C2        1.0000    0.27350   0.45300   0.43470   Biso      1.000     C          0.638008  
         C3        1.0000    0.90480   0.25690   0.50860   Biso      1.000     C          -0.245793           
         C4        1.0000    0.82050   0.27350   0.56530   Biso      1.000     C          0.638017  
         C5        1.0000    0.56020   0.12080   0.34210   Biso      1.000     C          0.665506  
         C6        1.0000    0.44570   0.11280   0.36240   Biso      1.000     C          -0.25174  
         C7        1.0000    0.35210   0.09520   0.50860   Biso      1.000     C          -0.245794           
         C8        1.0000    0.45300   0.17950   0.56530   Biso      1.000     C          0.638006  
         C9        1.0000    0.12080   0.56020   0.15790   Biso      1.000     C          0.665502  
         C10       1.0000    0.87920   0.43940   0.34210   Biso      1.000     C          0.665509  
         C11       1.0000    0.11280   0.44570   0.13760   Biso      1.000     C          -0.251739           
         C12       1.0000    0.17950   0.45300   0.93470   Biso      1.000     C          0.638005  
         C13       1.0000    0.43980   0.56060   0.15790   Biso      1.000     C          0.665511  
         C14       1.0000    0.55430   0.66710   0.13760   Biso      1.000     C          -0.251735           
         C15       1.0000    0.64790   0.74310   0.99140   Biso      1.000     C          -0.245773           
         C16       1.0000    0.54700   0.72650   0.93470   Biso      1.000     C          0.63801   
         C17       1.0000    0.43940   0.87920   0.15790   Biso      1.000     C          0.665501  
         C18       1.0000    0.33290   0.88720   0.13760   Biso      1.000     C          -0.251741           
         C19       1.0000    0.25690   0.90480   0.99140   Biso      1.000     C          -0.245782           
         C20       1.0000    0.09520   0.35210   0.99140   Biso      1.000     C          -0.24577  
         C21       1.0000    0.72650   0.54700   0.56530   Biso      1.000     C          0.638009  
         C22       1.0000    0.74310   0.64790   0.50860   Biso      1.000     C          -0.245792           
         C23       1.0000    0.66710   0.55430   0.36240   Biso      1.000     C          -0.251738           
         C24       1.0000    0.09520   0.74310   0.49140   Biso      1.000     C          -0.245793           
         C25       1.0000    0.17950   0.72650   0.43470   Biso      1.000     C          0.638017  
         C26       1.0000    0.43980   0.87920   0.65790   Biso      1.000     C          0.665506  
         C27       1.0000    0.55430   0.88720   0.63760   Biso      1.000     C          -0.25174  
         C28       1.0000    0.64790   0.90480   0.49140   Biso      1.000     C          -0.245793           
         C29       1.0000    0.54700   0.82050   0.43470   Biso      1.000     C          0.638006  
         C30       1.0000    0.87920   0.43980   0.84210   Biso      1.000     C          0.665503  
         C31       1.0000    0.88720   0.55430   0.86240   Biso      1.000     C          -0.25174  
         C32       1.0000    0.90480   0.64790   0.00860   Biso      1.000     C          -0.245771           
         C33       1.0000    0.82050   0.54700   0.06530   Biso      1.000     C          0.638005  
         C34       1.0000    0.56020   0.43940   0.84210   Biso      1.000     C          0.665512  
         C35       1.0000    0.44570   0.33290   0.86240   Biso      1.000     C          -0.251736           
         C36       1.0000    0.35210   0.25690   0.00860   Biso      1.000     C          -0.245774           
         C37       1.0000    0.45300   0.27350   0.06530   Biso      1.000     C          0.63801   
         C38       1.0000    0.56060   0.12080   0.84210   Biso      1.000     C          0.665502  
         C39       1.0000    0.66710   0.11280   0.86240   Biso      1.000     C          -0.251741           
         C40       1.0000    0.74310   0.09520   0.00860   Biso      1.000     C          -0.245782           
         C41       1.0000    0.72650   0.17950   0.06530   Biso      1.000     C          0.638002  
         C42       1.0000    0.56060   0.43980   0.34210   Biso      1.000     C          0.665504  
         C43       1.0000    0.27350   0.82050   0.93470   Biso      1.000     C          0.638002  
         C44       1.0000    0.11280   0.66710   0.63760   Biso      1.000     C          -0.25174  
         C45       1.0000    0.12080   0.56060   0.65790   Biso      1.000     C          0.665509  
         C46       1.0000    0.43940   0.56020   0.65790   Biso      1.000     C          0.665504  
         C47       1.0000    0.33290   0.44570   0.63760   Biso      1.000     C          -0.251738           
         C48       1.0000    0.25690   0.35210   0.49140   Biso      1.000     C          -0.245791           
         Cu1       1.0000    0.50000   0.00000   0.00000   Biso      1.000     Cu          0.769335  
         Cu2       1.0000    0.50000   0.50000   0.00000   Biso      1.000     Cu          0.769374  
         Cu3       1.0000    0.00000   0.50000   0.00000   Biso      1.000     Cu          0.769401  
         Cu4       1.0000    0.50000   0.00000   0.50000   Biso      1.000     Cu          0.76939   
         Cu5       1.0000    0.00000   0.50000   0.50000   Biso      1.000     Cu          0.769351  
         Cu6       1.0000    0.50000   0.50000   0.50000   Biso      1.000     Cu          0.769393  
         H1        1.0000    0.28930   0.24640   0.04550   Biso      1.000     H          0.161446  
         H2        1.0000    0.18790   0.46210   0.12080   Biso      1.000     H          0.15563   
         H3        1.0000    0.97620   0.32900   0.07700   Biso      1.000     H          0.262891  
         H4        1.0000    0.28930   0.04290   0.54550   Biso      1.000     H          0.161482  
         H5        1.0000    0.34510   0.14320   0.46580   Biso      1.000     H          0.133552  
         H6        1.0000    0.85680   0.20190   0.46580   Biso      1.000     H          0.133551  
         H7        1.0000    0.46210   0.18790   0.37920   Biso      1.000     H          0.155629  
         H8        1.0000    0.32900   0.97620   0.42300   Biso      1.000     H          0.262889  
         H9        1.0000    0.95710   0.24640   0.54550   Biso      1.000     H          0.16147   
         H10       1.0000    0.06800   0.39710   0.18570   Biso      1.000     H          0.152237  
         H11       1.0000    0.39710   0.06800   0.31430   Biso      1.000     H          0.152245  
         H12       1.0000    0.14320   0.34510   0.03420   Biso      1.000     H          0.13354   
         H13       1.0000    0.65490   0.79810   0.03420   Biso      1.000     H          0.133553  
         H14       1.0000    0.67100   0.64720   0.07700   Biso      1.000     H          0.262892  
         H15       1.0000    0.53790   0.72580   0.12080   Biso      1.000     H          0.155637  
         H16       1.0000    0.60290   0.67090   0.18570   Biso      1.000     H          0.152249  
         H17       1.0000    0.93200   0.32910   0.31430   Biso      1.000     H          0.152236  
         H18       1.0000    0.71070   0.75360   0.95450   Biso      1.000     H          0.161445  
         H19       1.0000    0.35280   0.02380   0.07700   Biso      1.000     H          0.262884  
         H20       1.0000    0.27420   0.81210   0.12080   Biso      1.000     H          0.155634  
         H21       1.0000    0.32910   0.93200   0.18570   Biso      1.000     H          0.152243  
         H22       1.0000    0.20190   0.85680   0.03420   Biso      1.000     H          0.133544  
         H23       1.0000    0.24640   0.95710   0.95450   Biso      1.000     H          0.161438  
         H24       1.0000    0.04290   0.28930   0.95450   Biso      1.000     H          0.161425  
         H25       1.0000    0.64720   0.97620   0.92300   Biso      1.000     H          0.262885  
         H26       1.0000    0.81210   0.27420   0.37920   Biso      1.000     H          0.155631  
         H27       1.0000    0.75360   0.71070   0.54550   Biso      1.000     H          0.161481  
         H28       1.0000    0.34510   0.20190   0.96580   Biso      1.000     H          0.133553  
         H29       1.0000    0.39710   0.32910   0.81430   Biso      1.000     H          0.152249  
         H30       1.0000    0.46210   0.27420   0.87920   Biso      1.000     H          0.155637  
         H31       1.0000    0.32900   0.35280   0.92300   Biso      1.000     H          0.262892  
         H32       1.0000    0.95710   0.71070   0.04550   Biso      1.000     H          0.161426  
         H33       1.0000    0.85680   0.65490   0.96580   Biso      1.000     H          0.13354   
         H34       1.0000    0.93200   0.60290   0.81430   Biso      1.000     H          0.152237  
         H35       1.0000    0.81210   0.53790   0.87920   Biso      1.000     H          0.15563   
         H36       1.0000    0.02380   0.67100   0.92300   Biso      1.000     H          0.262891  
         H37       1.0000    0.71070   0.95710   0.45450   Biso      1.000     H          0.161483  
         H38       1.0000    0.72580   0.18790   0.87920   Biso      1.000     H          0.155634  
         H39       1.0000    0.60290   0.93200   0.68570   Biso      1.000     H          0.152245  
         H40       1.0000    0.53790   0.81210   0.62080   Biso      1.000     H          0.155629  
         H41       1.0000    0.67100   0.02380   0.57700   Biso      1.000     H          0.262889  
         H42       1.0000    0.04290   0.75360   0.45450   Biso      1.000     H          0.16147   
         H43       1.0000    0.14320   0.79810   0.53420   Biso      1.000     H          0.133551  
         H44       1.0000    0.06800   0.67090   0.68570   Biso      1.000     H          0.152237  
         H45       1.0000    0.79810   0.65490   0.46580   Biso      1.000     H          0.13356   
         H46       1.0000    0.67090   0.60290   0.31430   Biso      1.000     H          0.152247  
         H47       1.0000    0.72580   0.53790   0.37920   Biso      1.000     H          0.155638  
         H48       1.0000    0.64720   0.67100   0.42300   Biso      1.000     H          0.262896  
         H49       1.0000    0.75360   0.04290   0.04550   Biso      1.000     H          0.161439  
         H50       1.0000    0.79810   0.14320   0.96580   Biso      1.000     H          0.133544  
         H51       1.0000    0.02380   0.35280   0.42300   Biso      1.000     H          0.262884  
         H52       1.0000    0.67090   0.06800   0.81430   Biso      1.000     H          0.152243  
         H53       1.0000    0.27420   0.46210   0.62080   Biso      1.000     H          0.155639  
         H54       1.0000    0.32910   0.39710   0.68570   Biso      1.000     H          0.152247  
         H55       1.0000    0.20190   0.34510   0.53420   Biso      1.000     H          0.13356   
         H56       1.0000    0.24640   0.28930   0.45450   Biso      1.000     H          0.161482  
         H57       1.0000    0.97620   0.64720   0.57700   Biso      1.000     H          0.262884  
         H58       1.0000    0.18790   0.72580   0.62080   Biso      1.000     H          0.155631  
         H59       1.0000    0.35280   0.32900   0.57700   Biso      1.000     H          0.262896  
         H60       1.0000    0.65490   0.85680   0.53420   Biso      1.000     H          0.133551  
         La1       1.0000    0.33333   0.66666   0.83240   Biso      1.000     La          1.859945  
         La2       1.0000    0.33333   0.66666   0.33240   Biso      1.000     La          1.859967  
         La3       1.0000    0.66667   0.33334   0.16760   Biso      1.000     La          1.859943  
         La4       1.0000    0.66667   0.33334   0.66760   Biso      1.000     La          1.859972  
         N1        1.0000    0.34960   0.38950   0.55830   Biso      1.000     N          -0.303289           
         N2        1.0000    0.03990   0.65040   0.55830   Biso      1.000     N          -0.303292           
         N3        1.0000    0.96010   0.61050   0.94170   Biso      1.000     N          -0.303291           
         N4        1.0000    0.38950   0.34960   0.94170   Biso      1.000     N          -0.303302           
         N5        1.0000    0.65040   0.03990   0.94170   Biso      1.000     N          -0.303277           
         N6        1.0000    0.61050   0.96010   0.55830   Biso      1.000     N          -0.303285           
         N7        1.0000    0.96010   0.34960   0.44170   Biso      1.000     N          -0.303292           
         N8        1.0000    0.38950   0.03990   0.44170   Biso      1.000     N          -0.303286           
         N9        1.0000    0.03990   0.38950   0.05830   Biso      1.000     N          -0.303292           
         N10       1.0000    0.61050   0.65040   0.05830   Biso      1.000     N          -0.303302           
         N11       1.0000    0.34960   0.96010   0.05830   Biso      1.000     N          -0.303276           
         N12       1.0000    0.65040   0.61050   0.44170   Biso      1.000     N          -0.303289           
         O1        1.0000    0.81660   0.45200   0.05370   Biso      1.000     O          -0.634381           
         O2        1.0000    0.63540   0.18340   0.05370   Biso      1.000     O          -0.634329           
         O3        1.0000    0.56210   0.17600   0.77480   Biso      1.000     O          -0.611232           
         O4        1.0000    0.47530   0.07160   0.89370   Biso      1.000     O          -0.530939           
         O5        1.0000    0.44070   0.19930   0.12170   Biso      1.000     O          -0.596606           
         O6        1.0000    0.54800   0.36460   0.05370   Biso      1.000     O          -0.634372           
         O7        1.0000    0.61390   0.43790   0.77480   Biso      1.000     O          -0.61124  
         O8        1.0000    0.59630   0.52470   0.89370   Biso      1.000     O          -0.530928           
         O9        1.0000    0.75860   0.55930   0.12170   Biso      1.000     O          -0.596622           
         O10       1.0000    0.82400   0.38610   0.77480   Biso      1.000     O          -0.611233           
         O11       1.0000    0.17600   0.56210   0.72520   Biso      1.000     O          -0.611224           
         O12       1.0000    0.55930   0.75860   0.37830   Biso      1.000     O          -0.596632           
         O13       1.0000    0.45200   0.81660   0.44630   Biso      1.000     O          -0.634334           
         O14       1.0000    0.38610   0.82400   0.72520   Biso      1.000     O          -0.611212           
         O15       1.0000    0.40370   0.92840   0.60630   Biso      1.000     O          -0.530954           
         O16       1.0000    0.24140   0.80070   0.37830   Biso      1.000     O          -0.596621           
         O17       1.0000    0.18340   0.63540   0.44630   Biso      1.000     O          -0.634379           
         O18       1.0000    0.80070   0.24140   0.12170   Biso      1.000     O          -0.596627           
         O19       1.0000    0.07160   0.47530   0.60630   Biso      1.000     O          -0.530932           
         O20       1.0000    0.19930   0.44070   0.37830   Biso      1.000     O          -0.596606           
         O21       1.0000    0.36460   0.54800   0.44630   Biso      1.000     O          -0.634375           
         O22       1.0000    0.92840   0.40370   0.89370   Biso      1.000     O          -0.530941           
         O23       1.0000    0.47530   0.40370   0.39370   Biso      1.000     O          -0.53094  
         O24       1.0000    0.75860   0.19930   0.62170   Biso      1.000     O          -0.596622           
         O25       1.0000    0.63540   0.45200   0.55370   Biso      1.000     O          -0.634376           
         O26       1.0000    0.19930   0.75860   0.87830   Biso      1.000     O          -0.596627           
         O27       1.0000    0.36460   0.81660   0.94630   Biso      1.000     O          -0.63433  
         O28       1.0000    0.43790   0.82400   0.22520   Biso      1.000     O          -0.611233           
         O29       1.0000    0.52470   0.92840   0.10630   Biso      1.000     O          -0.53094  
         O30       1.0000    0.55930   0.80070   0.87830   Biso      1.000     O          -0.596606           
         O31       1.0000    0.45200   0.63540   0.94630   Biso      1.000     O          -0.634373           
         O32       1.0000    0.38610   0.56210   0.22520   Biso      1.000     O          -0.61124  
         O33       1.0000    0.40370   0.47530   0.10630   Biso      1.000     O          -0.530928           
         O34       1.0000    0.24140   0.44070   0.87830   Biso      1.000     O          -0.596622           
         O35       1.0000    0.18340   0.54800   0.94630   Biso      1.000     O          -0.634382           
         O36       1.0000    0.17600   0.61390   0.22520   Biso      1.000     O          -0.611233           
         O37       1.0000    0.07160   0.59630   0.10630   Biso      1.000     O          -0.530942           
         O38       1.0000    0.44070   0.24140   0.62170   Biso      1.000     O          -0.596632           
         O39       1.0000    0.54800   0.18340   0.55370   Biso      1.000     O          -0.634335           
         O40       1.0000    0.61390   0.17600   0.27480   Biso      1.000     O          -0.611212           
         O41       1.0000    0.59630   0.07160   0.39370   Biso      1.000     O          -0.530954           
         O42       1.0000    0.43790   0.61390   0.72520   Biso      1.000     O          -0.611216           
         O43       1.0000    0.81660   0.36460   0.55370   Biso      1.000     O          -0.63438  
         O44       1.0000    0.82400   0.43790   0.27480   Biso      1.000     O          -0.611224           
         O45       1.0000    0.92840   0.52470   0.39370   Biso      1.000     O          -0.530932           
         O46       1.0000    0.80070   0.55930   0.62170   Biso      1.000     O          -0.596607           
         O47       1.0000    0.56210   0.38610   0.27480   Biso      1.000     O          -0.611215           
         O48       1.0000    0.52470   0.59630   0.60630   Biso      1.000     O          -0.53094 