
##########################################################################
#               Crystallographic Information Format file
#               Produced by PyCifRW module
#
#  This is a CIF file.  CIF has been adopted by the International
#  Union of Crystallography as the standard for data archiving and
#  transmission.
#
#  For information on this file format, follow the CIF links at
#  http://www.iucr.org
##########################################################################

data_image0

_cell_length_a                          13.5136
_cell_length_b                          13.5136
_cell_length_c                          14.795
_cell_angle_alpha                       90
_cell_angle_beta                        90
_cell_angle_gamma                       120
_symmetry_space_group_name_H-M          'P 1'
_symmetry_int_tables_number             1
loop_
  _symmetry_equiv_pos_as_xyz
         'x, y, z' 
loop_
  _atom_site_label
  _atom_site_occupancy
  _atom_site_fract_x
  _atom_site_fract_y
  _atom_site_fract_z
  _atom_site_thermal_displace_type
  _atom_site_B_iso_or_equiv
  _atom_site_type_symbol
  _atom_site_charge
         C1        1.0000    0.11290   0.66610   0.86230   Biso      1.000     C          -0.25319899999999995          
         C2        1.0000    0.72660   0.54640   0.93530   Biso      1.000     C          0.639324  
         C3        1.0000    0.09470   0.74310   0.00850   Biso      1.000     C          -0.241436           
         C4        1.0000    0.18020   0.72660   0.06470   Biso      1.000     C          0.6393260000000001  
         C5        1.0000    0.43890   0.87980   0.84150   Biso      1.000     C          0.6641130000000001  
         C6        1.0000    0.55320   0.88710   0.86230   Biso      1.000     C          -0.253203           
         C7        1.0000    0.64840   0.90530   0.00850   Biso      1.000     C          -0.24143699999999998          
         C8        1.0000    0.54640   0.81980   0.06470   Biso      1.000     C          0.639339  
         C9        1.0000    0.87980   0.43890   0.65850   Biso      1.000     C          0.6641060000000001  
         C10       1.0000    0.12020   0.55910   0.84150   Biso      1.000     C          0.6641090000000001  
         C11       1.0000    0.88710   0.55320   0.63770   Biso      1.000     C          -0.253205           
         C12       1.0000    0.81980   0.54640   0.43530   Biso      1.000     C          0.639325  
         C13       1.0000    0.56110   0.44090   0.65850   Biso      1.000     C          0.664115  
         C14       1.0000    0.44680   0.33390   0.63770   Biso      1.000     C          -0.2532   
         C15       1.0000    0.35160   0.25690   0.49150   Biso      1.000     C          -0.241427           
         C16       1.0000    0.45360   0.27340   0.43530   Biso      1.000     C          0.639324  
         C17       1.0000    0.55910   0.12020   0.65850   Biso      1.000     C          0.6641100000000001  
         C18       1.0000    0.66610   0.11290   0.63770   Biso      1.000     C          -0.253201           
         C19       1.0000    0.74310   0.09470   0.49150   Biso      1.000     C          -0.241431           
         C20       1.0000    0.90530   0.64840   0.49150   Biso      1.000     C          -0.241429           
         C21       1.0000    0.27340   0.45360   0.06470   Biso      1.000     C          0.6393260000000001  
         C22       1.0000    0.25690   0.35160   0.00850   Biso      1.000     C          -0.241434           
         C23       1.0000    0.33390   0.44680   0.86230   Biso      1.000     C          -0.253205           
         C24       1.0000    0.90530   0.25690   0.99150   Biso      1.000     C          -0.241436           
         C25       1.0000    0.81980   0.27340   0.93530   Biso      1.000     C          0.639325  
         C26       1.0000    0.56110   0.12020   0.15850   Biso      1.000     C          0.6641130000000001  
         C27       1.0000    0.44680   0.11290   0.13770   Biso      1.000     C          -0.253203           
         C28       1.0000    0.35160   0.09470   0.99150   Biso      1.000     C          -0.24143699999999998          
         C29       1.0000    0.45360   0.18020   0.93530   Biso      1.000     C          0.639337  
         C30       1.0000    0.12020   0.56110   0.34150   Biso      1.000     C          0.6641060000000001  
         C31       1.0000    0.11290   0.44680   0.36230   Biso      1.000     C          -0.253205           
         C32       1.0000    0.09470   0.35160   0.50850   Biso      1.000     C          -0.241429           
         C33       1.0000    0.18020   0.45360   0.56470   Biso      1.000     C          0.639323  
         C34       1.0000    0.43890   0.55910   0.34150   Biso      1.000     C          0.664115  
         C35       1.0000    0.55320   0.66610   0.36230   Biso      1.000     C          -0.253201           
         C36       1.0000    0.64840   0.74310   0.50850   Biso      1.000     C          -0.241427           
         C37       1.0000    0.54640   0.72660   0.56470   Biso      1.000     C          0.639323  
         C38       1.0000    0.44090   0.87980   0.34150   Biso      1.000     C          0.6641100000000001  
         C39       1.0000    0.33390   0.88710   0.36230   Biso      1.000     C          -0.253201           
         C40       1.0000    0.25690   0.90530   0.50850   Biso      1.000     C          -0.241431           
         C41       1.0000    0.27340   0.81980   0.56470   Biso      1.000     C          0.639335  
         C42       1.0000    0.44090   0.56110   0.84150   Biso      1.000     C          0.6641100000000001  
         C43       1.0000    0.72660   0.18020   0.43530   Biso      1.000     C          0.639336  
         C44       1.0000    0.88710   0.33390   0.13770   Biso      1.000     C          -0.25319899999999995          
         C45       1.0000    0.87980   0.44090   0.15850   Biso      1.000     C          0.6641090000000001  
         C46       1.0000    0.55910   0.43890   0.15850   Biso      1.000     C          0.6641100000000001  
         C47       1.0000    0.66610   0.55320   0.13770   Biso      1.000     C          -0.253205           
         C48       1.0000    0.74310   0.64840   0.99150   Biso      1.000     C          -0.241434           
         Cu1       1.0000    0.50000   0.00000   0.50000   Biso      1.000     Cu          0.772713  
         Cu2       1.0000    0.50000   0.50000   0.50000   Biso      1.000     Cu          0.772713  
         Cu3       1.0000    0.00000   0.50000   0.50000   Biso      1.000     Cu          0.772683  
         Cu4       1.0000    0.50000   0.00000   0.00000   Biso      1.000     Cu          0.772702  
         Cu5       1.0000    0.00000   0.50000   0.00000   Biso      1.000     Cu          0.772703  
         Cu6       1.0000    0.50000   0.50000   0.00000   Biso      1.000     Cu          0.772703  
         H1        1.0000    0.65990   0.79980   0.46520   Biso      1.000     H          0.131101  
         H2        1.0000    0.93130   0.60180   0.68610   Biso      1.000     H          0.150106  
         H3        1.0000    0.02480   0.67180   0.57750   Biso      1.000     H          0.265343  
         H4        1.0000    0.65990   0.86010   0.96520   Biso      1.000     H          0.131097  
         H5        1.0000    0.71110   0.95810   0.04500   Biso      1.000     H          0.158251  
         H6        1.0000    0.04190   0.75300   0.04500   Biso      1.000     H          0.158252  
         H7        1.0000    0.60180   0.93130   0.81390   Biso      1.000     H          0.150108  
         H8        1.0000    0.67180   0.02480   0.92250   Biso      1.000     H          0.265341  
         H9        1.0000    0.13990   0.79980   0.96520   Biso      1.000     H          0.131102  
         H10       1.0000    0.81140   0.53650   0.62160   Biso      1.000     H          0.155051  
         H11       1.0000    0.53650   0.81140   0.87840   Biso      1.000     H          0.15505   
         H12       1.0000    0.95810   0.71110   0.45500   Biso      1.000     H          0.15824000000000002           
         H13       1.0000    0.28890   0.24700   0.45500   Biso      1.000     H          0.158249  
         H14       1.0000    0.32820   0.35300   0.57750   Biso      1.000     H          0.265341  
         H15       1.0000    0.39820   0.32950   0.68610   Biso      1.000     H          0.150112  
         H16       1.0000    0.46350   0.27490   0.62160   Biso      1.000     H          0.155056  
         H17       1.0000    0.18860   0.72510   0.87840   Biso      1.000     H          0.155057  
         H18       1.0000    0.34010   0.20020   0.53480   Biso      1.000     H          0.131101  
         H19       1.0000    0.64700   0.97520   0.57750   Biso      1.000     H          0.265343  
         H20       1.0000    0.67050   0.06870   0.68610   Biso      1.000     H          0.150105  
         H21       1.0000    0.72510   0.18860   0.62160   Biso      1.000     H          0.15505   
         H22       1.0000    0.75300   0.04190   0.45500   Biso      1.000     H          0.158237  
         H23       1.0000    0.79980   0.13990   0.53480   Biso      1.000     H          0.13109300000000002           
         H24       1.0000    0.86010   0.65990   0.53480   Biso      1.000     H          0.131096  
         H25       1.0000    0.35300   0.02480   0.42250   Biso      1.000     H          0.265343  
         H26       1.0000    0.06870   0.67050   0.81390   Biso      1.000     H          0.150109  
         H27       1.0000    0.20020   0.34010   0.96520   Biso      1.000     H          0.131098  
         H28       1.0000    0.71110   0.75300   0.54500   Biso      1.000     H          0.158249  
         H29       1.0000    0.53650   0.72510   0.37840   Biso      1.000     H          0.155056  
         H30       1.0000    0.60180   0.67050   0.31390   Biso      1.000     H          0.15011300000000002           
         H31       1.0000    0.67180   0.64700   0.42250   Biso      1.000     H          0.26534   
         H32       1.0000    0.13990   0.34010   0.46520   Biso      1.000     H          0.131096  
         H33       1.0000    0.04190   0.28890   0.54500   Biso      1.000     H          0.15824000000000002           
         H34       1.0000    0.18860   0.46350   0.37840   Biso      1.000     H          0.155051  
         H35       1.0000    0.06870   0.39820   0.31390   Biso      1.000     H          0.150106  
         H36       1.0000    0.97520   0.32820   0.42250   Biso      1.000     H          0.265343  
         H37       1.0000    0.34010   0.13990   0.03480   Biso      1.000     H          0.131098  
         H38       1.0000    0.32950   0.93130   0.31390   Biso      1.000     H          0.150105  
         H39       1.0000    0.46350   0.18860   0.12160   Biso      1.000     H          0.15505   
         H40       1.0000    0.39820   0.06870   0.18610   Biso      1.000     H          0.150109  
         H41       1.0000    0.32820   0.97520   0.07750   Biso      1.000     H          0.265341  
         H42       1.0000    0.86010   0.20020   0.03480   Biso      1.000     H          0.131103  
         H43       1.0000    0.95810   0.24700   0.95500   Biso      1.000     H          0.158252  
         H44       1.0000    0.81140   0.27490   0.12160   Biso      1.000     H          0.155057  
         H45       1.0000    0.24700   0.28890   0.04500   Biso      1.000     H          0.158255  
         H46       1.0000    0.27490   0.46350   0.87840   Biso      1.000     H          0.15505   
         H47       1.0000    0.32950   0.39820   0.81390   Biso      1.000     H          0.150107  
         H48       1.0000    0.35300   0.32820   0.92250   Biso      1.000     H          0.265341  
         H49       1.0000    0.20020   0.86010   0.46520   Biso      1.000     H          0.13109400000000002           
         H50       1.0000    0.24700   0.95810   0.54500   Biso      1.000     H          0.15823800000000002           
         H51       1.0000    0.97520   0.64700   0.92250   Biso      1.000     H          0.265343  
         H52       1.0000    0.27490   0.81140   0.37840   Biso      1.000     H          0.15505   
         H53       1.0000    0.67050   0.60180   0.18610   Biso      1.000     H          0.150108  
         H54       1.0000    0.72510   0.53650   0.12160   Biso      1.000     H          0.15505   
         H55       1.0000    0.75300   0.71110   0.95500   Biso      1.000     H          0.158256  
         H56       1.0000    0.79980   0.65990   0.03480   Biso      1.000     H          0.131098  
         H57       1.0000    0.02480   0.35300   0.07750   Biso      1.000     H          0.265344  
         H58       1.0000    0.93130   0.32950   0.18610   Biso      1.000     H          0.150109  
         H59       1.0000    0.64700   0.67180   0.07750   Biso      1.000     H          0.265341  
         H60       1.0000    0.28890   0.04190   0.95500   Biso      1.000     H          0.158252  
         La1       1.0000    0.66667   0.33334   0.33300   Biso      1.000     La          1.8606509999999998  
         La2       1.0000    0.66667   0.33334   0.83300   Biso      1.000     La          1.8606490000000002  
         La3       1.0000    0.33333   0.66666   0.66700   Biso      1.000     La          1.8606490000000002  
         La4       1.0000    0.33333   0.66666   0.16700   Biso      1.000     La          1.86065   
         N1        1.0000    0.64990   0.61110   0.05890   Biso      1.000     N          -0.307184           
         N2        1.0000    0.96120   0.35010   0.05890   Biso      1.000     N          -0.307182           
         N3        1.0000    0.03880   0.38890   0.44110   Biso      1.000     N          -0.307181           
         N4        1.0000    0.61110   0.64990   0.44110   Biso      1.000     N          -0.307183           
         N5        1.0000    0.35010   0.96120   0.44110   Biso      1.000     N          -0.307181           
         N6        1.0000    0.38890   0.03880   0.05890   Biso      1.000     N          -0.307181           
         N7        1.0000    0.03880   0.64990   0.94110   Biso      1.000     N          -0.307182           
         N8        1.0000    0.61110   0.96120   0.94110   Biso      1.000     N          -0.307181           
         N9        1.0000    0.96120   0.61110   0.55890   Biso      1.000     N          -0.307181           
         N10       1.0000    0.38890   0.35010   0.55890   Biso      1.000     N          -0.307183           
         N11       1.0000    0.64990   0.03880   0.55890   Biso      1.000     N          -0.307182           
         N12       1.0000    0.35010   0.38890   0.94110   Biso      1.000     N          -0.307185           
         O1        1.0000    0.24060   0.44040   0.62200   Biso      1.000     O          -0.5977399999999999           
         O2        1.0000    0.19980   0.75940   0.62200   Biso      1.000     O          -0.5977560000000001           
         O3        1.0000    0.52550   0.92970   0.39320   Biso      1.000     O          -0.528215           
         O4        1.0000    0.43790   0.82390   0.27390   Biso      1.000     O          -0.611193           
         O5        1.0000    0.45210   0.63620   0.55270   Biso      1.000     O          -0.630915           
         O6        1.0000    0.55960   0.80020   0.62200   Biso      1.000     O          -0.597739           
         O7        1.0000    0.40420   0.47450   0.39320   Biso      1.000     O          -0.528205           
         O8        1.0000    0.38600   0.56210   0.27390   Biso      1.000     O          -0.611161           
         O9        1.0000    0.18410   0.54790   0.55270   Biso      1.000     O          -0.630886           
         O10       1.0000    0.07030   0.59580   0.39320   Biso      1.000     O          -0.5282020000000001           
         O11       1.0000    0.92970   0.52550   0.10680   Biso      1.000     O          -0.5282060000000001           
         O12       1.0000    0.54790   0.18410   0.94730   Biso      1.000     O          -0.6309359999999999           
         O13       1.0000    0.44040   0.24060   0.87800   Biso      1.000     O          -0.597754           
         O14       1.0000    0.59580   0.07030   0.10680   Biso      1.000     O          -0.528208           
         O15       1.0000    0.61400   0.17610   0.22610   Biso      1.000     O          -0.611172           
         O16       1.0000    0.81590   0.36380   0.94730   Biso      1.000     O          -0.630915           
         O17       1.0000    0.75940   0.19980   0.87800   Biso      1.000     O          -0.5977359999999999           
         O18       1.0000    0.36380   0.81590   0.55270   Biso      1.000     O          -0.630941           
         O19       1.0000    0.82390   0.43790   0.22610   Biso      1.000     O          -0.6111810000000001           
         O20       1.0000    0.63620   0.45210   0.94730   Biso      1.000     O          -0.630884           
         O21       1.0000    0.80020   0.55960   0.87800   Biso      1.000     O          -0.597741           
         O22       1.0000    0.17610   0.61400   0.27390   Biso      1.000     O          -0.61116  
         O23       1.0000    0.43790   0.61400   0.77390   Biso      1.000     O          -0.611162           
         O24       1.0000    0.18410   0.63620   0.05270   Biso      1.000     O          -0.6309170000000001           
         O25       1.0000    0.19980   0.44040   0.12200   Biso      1.000     O          -0.5977439999999999           
         O26       1.0000    0.63620   0.18410   0.44730   Biso      1.000     O          -0.630943           
         O27       1.0000    0.80020   0.24060   0.37800   Biso      1.000     O          -0.597758           
         O28       1.0000    0.47450   0.07030   0.60680   Biso      1.000     O          -0.528215           
         O29       1.0000    0.56210   0.17610   0.72610   Biso      1.000     O          -0.611193           
         O30       1.0000    0.54790   0.36380   0.44730   Biso      1.000     O          -0.630916           
         O31       1.0000    0.44040   0.19980   0.37800   Biso      1.000     O          -0.5977399999999999           
         O32       1.0000    0.59580   0.52550   0.60680   Biso      1.000     O          -0.528205           
         O33       1.0000    0.61400   0.43790   0.72610   Biso      1.000     O          -0.611161           
         O34       1.0000    0.81590   0.45210   0.44730   Biso      1.000     O          -0.630888           
         O35       1.0000    0.75940   0.55960   0.37800   Biso      1.000     O          -0.597743           
         O36       1.0000    0.92970   0.40420   0.60680   Biso      1.000     O          -0.5282020000000001           
         O37       1.0000    0.82390   0.38600   0.72610   Biso      1.000     O          -0.611159           
         O38       1.0000    0.45210   0.81590   0.05270   Biso      1.000     O          -0.630938           
         O39       1.0000    0.55960   0.75940   0.12200   Biso      1.000     O          -0.597758           
         O40       1.0000    0.40420   0.92970   0.89320   Biso      1.000     O          -0.528208           
         O41       1.0000    0.38600   0.82390   0.77390   Biso      1.000     O          -0.611172           
         O42       1.0000    0.47450   0.40420   0.10680   Biso      1.000     O          -0.528209           
         O43       1.0000    0.24060   0.80020   0.12200   Biso      1.000     O          -0.597739           
         O44       1.0000    0.07030   0.47450   0.89320   Biso      1.000     O          -0.528205           
         O45       1.0000    0.17610   0.56210   0.77390   Biso      1.000     O          -0.6111800000000001           
         O46       1.0000    0.36380   0.54790   0.05270   Biso      1.000     O          -0.630887           
         O47       1.0000    0.52550   0.59580   0.89320   Biso      1.000     O          -0.528209           
         O48       1.0000    0.56210   0.38600   0.22610   Biso      1.000     O          -0.611162 