
##########################################################################
#               Crystallographic Information Format file
#               Produced by PyCifRW module
#
#  This is a CIF file.  CIF has been adopted by the International
#  Union of Crystallography as the standard for data archiving and
#  transmission.
#
#  For information on this file format, follow the CIF links at
#  http://www.iucr.org
##########################################################################

data_image0

_cell_length_a                          8.6839
_cell_length_b                          9.2922
_cell_length_c                          31.729
_cell_angle_alpha                       90
_cell_angle_beta                        90
_cell_angle_gamma                       98.514
_symmetry_space_group_name_H-M          'P 1'
_symmetry_int_tables_number             1
loop_
  _symmetry_equiv_pos_as_xyz
         'x, y, z' 
loop_
  _atom_site_label
  _atom_site_occupancy
  _atom_site_fract_x
  _atom_site_fract_y
  _atom_site_fract_z
  _atom_site_thermal_displace_type
  _atom_site_B_iso_or_equiv
  _atom_site_type_symbol
  _atom_site_charge
         C1        1.0000    0.17940   0.51610   0.22720   Biso      1.000     C          0.504013  
         C2        1.0000    0.94350   0.23880   0.38430   Biso      1.000     C          0.519066  
         C3        1.0000    0.67940   0.01610   0.27280   Biso      1.000     C          0.504013  
         C4        1.0000    0.71160   0.07010   0.22710   Biso      1.000     C          0.515958  
         C5        1.0000    0.42660   0.27400   0.31200   Biso      1.000     C          0.007873  
         C6        1.0000    0.43550   0.19100   0.35280   Biso      1.000     C          -0.136131           
         C7        1.0000    0.27070   0.03080   0.40370   Biso      1.000     C          -0.4341   
         C8        1.0000    0.81220   0.33020   0.37780   Biso      1.000     C          0.52803   
         C9        1.0000    0.25460   0.97750   0.32530   Biso      1.000     C          -0.425667           
         C10       1.0000    0.68780   0.16980   0.87780   Biso      1.000     C          0.52803   
         C11       1.0000    0.55650   0.26120   0.88430   Biso      1.000     C          0.519066  
         C12       1.0000    0.82060   0.48390   0.77280   Biso      1.000     C          0.504013  
         C13       1.0000    0.78840   0.42990   0.72710   Biso      1.000     C          0.515958  
         C14       1.0000    0.07340   0.22600   0.81200   Biso      1.000     C          0.007873  
         C15       1.0000    0.06450   0.30900   0.85280   Biso      1.000     C          -0.136131           
         C16       1.0000    0.45250   0.43060   0.00980   Biso      1.000     C          0.524474  
         C17       1.0000    0.04750   0.06940   0.50980   Biso      1.000     C          0.524474  
         C18       1.0000    0.75460   0.47750   0.17470   Biso      1.000     C          -0.425667           
         C19       1.0000    0.77070   0.53080   0.09630   Biso      1.000     C          -0.4341   
         C20       1.0000    0.95250   0.93060   0.49020   Biso      1.000     C          0.524473  
         C21       1.0000    0.18780   0.66980   0.62220   Biso      1.000     C          0.52803   
         C22       1.0000    0.05650   0.76120   0.61570   Biso      1.000     C          0.519066  
         C23       1.0000    0.32060   0.98390   0.72720   Biso      1.000     C          0.504013  
         C24       1.0000    0.28840   0.92990   0.77290   Biso      1.000     C          0.515958  
         C25       1.0000    0.57340   0.72600   0.68800   Biso      1.000     C          0.007873  
         C26       1.0000    0.56450   0.80900   0.64720   Biso      1.000     C          -0.136131           
         C27       1.0000    0.72930   0.96920   0.59630   Biso      1.000     C          -0.4341   
         C28       1.0000    0.74540   0.02250   0.67470   Biso      1.000     C          -0.425667           
         C29       1.0000    0.54750   0.56940   0.99020   Biso      1.000     C          0.524473  
         C30       1.0000    0.31220   0.83020   0.12220   Biso      1.000     C          0.52803   
         C31       1.0000    0.44350   0.73880   0.11570   Biso      1.000     C          0.519066  
         C32       1.0000    0.21160   0.57010   0.27290   Biso      1.000     C          0.515958  
         C33       1.0000    0.92660   0.77400   0.18800   Biso      1.000     C          0.007873  
         C34       1.0000    0.93550   0.69100   0.14720   Biso      1.000     C          -0.136131           
         C35       1.0000    0.22930   0.46920   0.90370   Biso      1.000     C          -0.4341   
         C36       1.0000    0.24540   0.52250   0.82530   Biso      1.000     C          -0.425667           
         Gd1       1.0000    0.56198   0.20044   0.78310   Biso      1.000     Gd          2.039894  
         Gd2       1.0000    0.24532   0.68662   0.02980   Biso      1.000     Gd          2.0797630000000003  
         Gd3       1.0000    0.93802   0.29956   0.28310   Biso      1.000     Gd          2.039894  
         Gd4       1.0000    0.25468   0.81338   0.52980   Biso      1.000     Gd          2.0797630000000003  
         Gd5       1.0000    0.43802   0.79956   0.21690   Biso      1.000     Gd          2.039895  
         Gd6       1.0000    0.75468   0.31338   0.97020   Biso      1.000     Gd          2.079762  
         Gd7       1.0000    0.06198   0.70044   0.71690   Biso      1.000     Gd          2.039895  
         Gd8       1.0000    0.74532   0.18662   0.47020   Biso      1.000     Gd          2.079762  
         H1        1.0000    0.70900   0.64680   0.14310   Biso      1.000     H          0.257829  
         H2        1.0000    0.15460   0.91780   0.33020   Biso      1.000     H          0.186385  
         H3        1.0000    0.20900   0.14680   0.35690   Biso      1.000     H          0.257829  
         H4        1.0000    0.36780   0.76050   0.38970   Biso      1.000     H          0.452692  
         H5        1.0000    0.97950   0.15600   0.80880   Biso      1.000     H          0.136958  
         H6        1.0000    0.16110   0.17250   0.81330   Biso      1.000     H          0.09350499999999999           
         H7        1.0000    0.04620   0.24120   0.87610   Biso      1.000     H          0.132913  
         H8        1.0000    0.34540   0.58220   0.83020   Biso      1.000     H          0.186385  
         H9        1.0000    0.32620   0.53600   0.90530   Biso      1.000     H          0.181916  
         H10       1.0000    0.16570   0.58540   0.82590   Biso      1.000     H          0.172716  
         H11       1.0000    0.33430   0.91460   0.32590   Biso      1.000     H          0.172716  
         H12       1.0000    0.29100   0.35320   0.85690   Biso      1.000     H          0.257829  
         H13       1.0000    0.13220   0.73950   0.88970   Biso      1.000     H          0.452692  
         H14       1.0000    0.86780   0.26050   0.11030   Biso      1.000     H          0.452691  
         H15       1.0000    0.97850   0.36460   0.85150   Biso      1.000     H          0.139488  
         H16       1.0000    0.17380   0.96400   0.40530   Biso      1.000     H          0.181916  
         H17       1.0000    0.23980   0.38870   0.92240   Biso      1.000     H          0.176563  
         H18       1.0000    0.52150   0.13540   0.35150   Biso      1.000     H          0.139488  
         H19       1.0000    0.83890   0.82750   0.18670   Biso      1.000     H          0.09350499999999999           
         H20       1.0000    0.95380   0.75880   0.12390   Biso      1.000     H          0.132913  
         H21       1.0000    0.02150   0.63540   0.14850   Biso      1.000     H          0.139488  
         H22       1.0000    0.65460   0.41780   0.16980   Biso      1.000     H          0.186385  
         H23       1.0000    0.76020   0.61130   0.07760   Biso      1.000     H          0.176563  
         H24       1.0000    0.83430   0.41460   0.17410   Biso      1.000     H          0.172716  
         H25       1.0000    0.63220   0.23950   0.61030   Biso      1.000     H          0.452691  
         H26       1.0000    0.79100   0.85320   0.64310   Biso      1.000     H          0.257829  
         H27       1.0000    0.84540   0.08220   0.66980   Biso      1.000     H          0.186385  
         H28       1.0000    0.26020   0.11130   0.42240   Biso      1.000     H          0.176563  
         H29       1.0000    0.66570   0.08540   0.67410   Biso      1.000     H          0.172716  
         H30       1.0000    0.67380   0.46400   0.09470   Biso      1.000     H          0.181916  
         H31       1.0000    0.73980   0.88870   0.57760   Biso      1.000     H          0.176563  
         H32       1.0000    0.47850   0.86460   0.64850   Biso      1.000     H          0.139487  
         H33       1.0000    0.54620   0.74120   0.62390   Biso      1.000     H          0.132913  
         H34       1.0000    0.66110   0.67250   0.68670   Biso      1.000     H          0.09350499999999999           
         H35       1.0000    0.47950   0.65600   0.69120   Biso      1.000     H          0.136958  
         H36       1.0000    0.52050   0.34400   0.30880   Biso      1.000     H          0.136958  
         H37       1.0000    0.33890   0.32750   0.31330   Biso      1.000     H          0.09350499999999999           
         H38       1.0000    0.45380   0.25880   0.37610   Biso      1.000     H          0.132913  
         H39       1.0000    0.82620   0.03600   0.59470   Biso      1.000     H          0.181916  
         H40       1.0000    0.02050   0.84400   0.19120   Biso      1.000     H          0.136958  
         N1        1.0000    0.21450   0.40980   0.85960   Biso      1.000     N          0.076436  
         N2        1.0000    0.78550   0.59020   0.14040   Biso      1.000     N          0.076436  
         N3        1.0000    0.71450   0.90980   0.64040   Biso      1.000     N          0.076436  
         N4        1.0000    0.28550   0.09020   0.35960   Biso      1.000     N          0.076436  
         O1        1.0000    0.31540   0.67710   0.27780   Biso      1.000     O          -0.584588           
         O2        1.0000    0.13040   0.49970   0.30090   Biso      1.000     O          -0.648874           
         O3        1.0000    0.25330   0.59000   0.19840   Biso      1.000     O          -0.633926           
         O4        1.0000    0.45710   0.68410   0.08080   Biso      1.000     O          -0.620574           
         O5        1.0000    0.08220   0.40300   0.22210   Biso      1.000     O          -0.590453           
         O6        1.0000    0.85580   0.37070   0.03560   Biso      1.000     O          -0.9288489999999999           
         O7        1.0000    0.94810   0.31870   0.10810   Biso      1.000     O          -0.635509           
         O8        1.0000    0.77250   0.45790   0.25950   Biso      1.000     O          -0.807344           
         O9        1.0000    0.90910   0.67850   0.22480   Biso      1.000     O          -0.386648           
         O10       1.0000    0.61610   0.64110   0.22780   Biso      1.000     O          -0.843715           
         O11       1.0000    0.98510   0.18410   0.50920   Biso      1.000     O          -0.630667           
         O12       1.0000    0.17780   0.05620   0.52560   Biso      1.000     O          -0.579603           
         O13       1.0000    0.79920   0.38420   0.34220   Biso      1.000     O          -0.537283           
         O14       1.0000    0.53320   0.73210   0.14680   Biso      1.000     O          -0.582969           
         O15       1.0000    0.07420   0.53730   0.07200   Biso      1.000     O          -0.843829           
         O16       1.0000    0.22680   0.84140   0.09100   Biso      1.000     O          -0.6824020000000001           
         O17       1.0000    0.04290   0.81590   0.58080   Biso      1.000     O          -0.620574           
         O18       1.0000    0.67780   0.55620   0.97440   Biso      1.000     O          -0.579603           
         O19       1.0000    0.20080   0.61580   0.65780   Biso      1.000     O          -0.537283           
         O20       1.0000    0.27320   0.65860   0.59100   Biso      1.000     O          -0.6824020000000001           
         O21       1.0000    0.96680   0.76790   0.64680   Biso      1.000     O          -0.58297  
         O22       1.0000    0.72680   0.34140   0.40900   Biso      1.000     O          -0.6824020000000001           
         O23       1.0000    0.41780   0.09700   0.72210   Biso      1.000     O          -0.590453           
         O24       1.0000    0.24670   0.91000   0.69840   Biso      1.000     O          -0.633926           
         O25       1.0000    0.36960   0.00030   0.80090   Biso      1.000     O          -0.648874           
         O26       1.0000    0.18460   0.82290   0.77780   Biso      1.000     O          -0.584588           
         O27       1.0000    0.42580   0.96270   0.57200   Biso      1.000     O          -0.843829           
         O28       1.0000    0.55190   0.18130   0.60810   Biso      1.000     O          -0.635509           
         O29       1.0000    0.64420   0.12930   0.53560   Biso      1.000     O          -0.9288489999999999           
         O30       1.0000    0.72750   0.04210   0.75950   Biso      1.000     O          -0.807344           
         O31       1.0000    0.59090   0.82150   0.72480   Biso      1.000     O          -0.386648           
         O32       1.0000    0.88390   0.85890   0.72780   Biso      1.000     O          -0.843715           
         O33       1.0000    0.48510   0.68410   0.99080   Biso      1.000     O          -0.630667           
         O34       1.0000    0.29920   0.88420   0.15780   Biso      1.000     O          -0.537283           
         O35       1.0000    0.03320   0.23210   0.35320   Biso      1.000     O          -0.582969           
         O36       1.0000    0.22750   0.54210   0.74050   Biso      1.000     O          -0.807344           
         O37       1.0000    0.58220   0.90300   0.27790   Biso      1.000     O          -0.590453           
         O38       1.0000    0.82220   0.94380   0.47440   Biso      1.000     O          -0.579603           
         O39       1.0000    0.38390   0.35890   0.77220   Biso      1.000     O          -0.843715           
         O40       1.0000    0.09090   0.32150   0.77520   Biso      1.000     O          -0.386648           
         O41       1.0000    0.14420   0.62930   0.96440   Biso      1.000     O          -0.9288489999999999           
         O42       1.0000    0.05190   0.68130   0.89190   Biso      1.000     O          -0.635509           
         O43       1.0000    0.92580   0.46270   0.92800   Biso      1.000     O          -0.843829           
         O44       1.0000    0.68460   0.32290   0.72220   Biso      1.000     O          -0.584588           
         O45       1.0000    0.86960   0.50030   0.69910   Biso      1.000     O          -0.648874           
         O46       1.0000    0.95710   0.18410   0.41920   Biso      1.000     O          -0.620574           
         O47       1.0000    0.91780   0.59700   0.77790   Biso      1.000     O          -0.590453           
         O48       1.0000    0.54290   0.31590   0.91920   Biso      1.000     O          -0.620574           
         O49       1.0000    0.46680   0.26790   0.85320   Biso      1.000     O          -0.582969           
         O50       1.0000    0.74670   0.41000   0.80160   Biso      1.000     O          -0.633926           
         O51       1.0000    0.70080   0.11580   0.84220   Biso      1.000     O          -0.537283           
         O52       1.0000    0.75330   0.09000   0.30160   Biso      1.000     O          -0.633926           
         O53       1.0000    0.77320   0.15860   0.90900   Biso      1.000     O          -0.6824020000000001           
         O54       1.0000    0.81540   0.17710   0.22220   Biso      1.000     O          -0.584588           
         O55       1.0000    0.57420   0.03730   0.42800   Biso      1.000     O          -0.843829           
         O56       1.0000    0.44810   0.81870   0.39190   Biso      1.000     O          -0.635509           
         O57       1.0000    0.63040   0.99970   0.19910   Biso      1.000     O          -0.648874           
         O58       1.0000    0.27250   0.95790   0.24050   Biso      1.000     O          -0.807344           
         O59       1.0000    0.40910   0.17850   0.27520   Biso      1.000     O          -0.386648           
         O60       1.0000    0.11610   0.14110   0.27220   Biso      1.000     O          -0.843715           
         O61       1.0000    0.51490   0.31590   0.00920   Biso      1.000     O          -0.630667           
         O62       1.0000    0.32220   0.44380   0.02560   Biso      1.000     O          -0.579603           
         O63       1.0000    0.35580   0.87070   0.46440   Biso      1.000     O          -0.9288489999999999           
         O64       1.0000    0.01490   0.81590   0.49080   Biso      1.000     O          -0.630667           
         P1        1.0000    0.24600   0.43540   0.77453   Biso      1.000     P          1.351352  
         P2        1.0000    0.07630   0.56280   0.92489   Biso      1.000     P          1.45531   
         P3        1.0000    0.25400   0.06460   0.27453   Biso      1.000     P          1.351352  
         P4        1.0000    0.42370   0.93720   0.42489   Biso      1.000     P          1.45531   
         P5        1.0000    0.75400   0.56460   0.22547   Biso      1.000     P          1.351352  
         P6        1.0000    0.92370   0.43720   0.07511   Biso      1.000     P          1.45531   
         P7        1.0000    0.74600   0.93540   0.72547   Biso      1.000     P          1.351352  
         P8        1.0000    0.57630   0.06280   0.57511   Biso      1.000     P          1.45531 