
##########################################################################
#               Crystallographic Information Format file
#               Produced by PyCifRW module
#
#  This is a CIF file.  CIF has been adopted by the International
#  Union of Crystallography as the standard for data archiving and
#  transmission.
#
#  For information on this file format, follow the CIF links at
#  http://www.iucr.org
##########################################################################

data_image0

_cell_length_a                          10.4693
_cell_length_b                          26.9783
_cell_length_c                          26.9783
_cell_angle_alpha                       61.6471
_cell_angle_beta                        82.5677
_cell_angle_gamma                       97.4323
_symmetry_space_group_name_H-M          'P 1'
_symmetry_int_tables_number             1
loop_
  _symmetry_equiv_pos_as_xyz
         'x, y, z' 
loop_
  _atom_site_label
  _atom_site_occupancy
  _atom_site_fract_x
  _atom_site_fract_y
  _atom_site_fract_z
  _atom_site_thermal_displace_type
  _atom_site_B_iso_or_equiv
  _atom_site_type_symbol
  _atom_site_charge
         C1        1.0000    0.10136   0.25838   0.55130   Biso      1.000     C          0.160825  
         C2        1.0000    0.26691   0.21741   0.51488   Biso      1.000     C          -0.031373           
         C3        1.0000    0.34734   0.19032   0.55130   Biso      1.000     C          0.160925  
         C4        1.0000    0.39285   0.14441   0.54886   Biso      1.000     C          -0.197451           
         C5        1.0000    0.35843   0.12638   0.51169   Biso      1.000     C          0.014355  
         C6        1.0000    0.02599   0.19917   0.59760   Biso      1.000     C          -0.517834           
         C7        1.0000    0.76795   0.12638   0.36193   Biso      1.000     C          0.013985  
         C8        1.0000    0.75156   0.14441   0.30673   Biso      1.000     C          -0.19674  
         C9        1.0000    0.84298   0.19032   0.25838   Biso      1.000     C          0.160346  
         C10       1.0000    0.95050   0.21741   0.26771   Biso      1.000     C          -0.03099  
         C11       1.0000    0.22952   0.19910   0.47764   Biso      1.000     C          -0.004116           
         C12       1.0000    0.96958   0.19910   0.32326   Biso      1.000     C          -0.004493           
         C13       1.0000    0.66766   0.07786   0.41268   Biso      1.000     C          0.602654  
         C14       1.0000    0.82682   0.20323   0.19917   Biso      1.000     C          -0.517101           
         C15       1.0000    0.64157   0.51169   0.12638   Biso      1.000     C          0.01124   
         C16       1.0000    0.60715   0.54886   0.14441   Biso      1.000     C          -0.197111           
         C17       1.0000    0.65266   0.55130   0.19032   Biso      1.000     C          0.160779  
         C18       1.0000    0.73309   0.51488   0.21741   Biso      1.000     C          -0.030914           
         C19       1.0000    0.77048   0.47764   0.19910   Biso      1.000     C          -0.005848           
         C20       1.0000    0.72117   0.47614   0.15443   Biso      1.000     C          -0.170098           
         C21       1.0000    0.58980   0.50946   0.07786   Biso      1.000     C          0.603629  
         C22       1.0000    0.87560   0.15443   0.36943   Biso      1.000     C          -0.170339           
         C23       1.0000    0.62359   0.59760   0.20323   Biso      1.000     C          -0.516973           
         C24       1.0000    0.27883   0.15443   0.47614   Biso      1.000     C          -0.171142           
         C25       1.0000    0.37641   0.20323   0.59760   Biso      1.000     C          -0.516708           
         C26       1.0000    0.21821   0.26771   0.51488   Biso      1.000     C          -0.030682           
         C27       1.0000    0.08034   0.41268   0.50946   Biso      1.000     C          0.603438  
         C28       1.0000    0.05829   0.30673   0.54886   Biso      1.000     C          -0.196638           
         C29       1.0000    0.12988   0.36193   0.51169   Biso      1.000     C          0.011683  
         C30       1.0000    0.17318   0.19917   0.20323   Biso      1.000     C          -0.517364           
         C31       1.0000    0.33234   0.41268   0.07786   Biso      1.000     C          0.603855  
         C32       1.0000    0.12440   0.36943   0.15443   Biso      1.000     C          -0.16958  
         C33       1.0000    0.03042   0.32326   0.19910   Biso      1.000     C          -0.00601  
         C34       1.0000    0.04950   0.26771   0.21741   Biso      1.000     C          -0.030875           
         C35       1.0000    0.41020   0.07786   0.50946   Biso      1.000     C          0.60275   
         C36       1.0000    0.15702   0.25838   0.19032   Biso      1.000     C          0.160184  
         C37       1.0000    0.23205   0.36193   0.12638   Biso      1.000     C          0.01072   
         C38       1.0000    0.97401   0.59760   0.19917   Biso      1.000     C          -0.517847           
         C39       1.0000    0.91966   0.50946   0.41268   Biso      1.000     C          0.603436  
         C40       1.0000    0.75497   0.47614   0.36943   Biso      1.000     C          -0.170324           
         C41       1.0000    0.70716   0.47764   0.32326   Biso      1.000     C          -0.006246           
         C42       1.0000    0.78179   0.51488   0.26771   Biso      1.000     C          -0.030602           
         C43       1.0000    0.89864   0.55130   0.25838   Biso      1.000     C          0.160828  
         C44       1.0000    0.94171   0.54886   0.30673   Biso      1.000     C          -0.196662           
         C45       1.0000    0.87012   0.51169   0.36193   Biso      1.000     C          0.011709  
         C46       1.0000    0.24844   0.30673   0.14441   Biso      1.000     C          -0.196457           
         C47       1.0000    0.64157   0.87362   0.48831   Biso      1.000     C          0.014473  
         C48       1.0000    0.60715   0.85559   0.45114   Biso      1.000     C          -0.197349           
         C49       1.0000    0.65266   0.80968   0.44870   Biso      1.000     C          0.160943  
         C50       1.0000    0.70716   0.67674   0.52236   Biso      1.000     C          -0.006305           
         C51       1.0000    0.75497   0.63057   0.52386   Biso      1.000     C          -0.170286           
         C52       1.0000    0.91966   0.58732   0.49054   Biso      1.000     C          0.603435  
         C53       1.0000    0.97401   0.80083   0.40240   Biso      1.000     C          -0.517844           
         C54       1.0000    0.23205   0.87362   0.63807   Biso      1.000     C          0.013825  
         C55       1.0000    0.24844   0.85559   0.69327   Biso      1.000     C          -0.196825           
         C56       1.0000    0.15702   0.80968   0.74162   Biso      1.000     C          0.160324  
         C57       1.0000    0.04950   0.78259   0.73229   Biso      1.000     C          -0.031202           
         C58       1.0000    0.03042   0.80090   0.67674   Biso      1.000     C          -0.004217           
         C59       1.0000    0.78179   0.73229   0.48512   Biso      1.000     C          -0.030713           
         C60       1.0000    0.12440   0.84557   0.63057   Biso      1.000     C          -0.170673           
         C61       1.0000    0.17318   0.79677   0.80083   Biso      1.000     C          -0.517104           
         C62       1.0000    0.35843   0.48831   0.87362   Biso      1.000     C          0.011234  
         C63       1.0000    0.39285   0.45114   0.85559   Biso      1.000     C          -0.197121           
         C64       1.0000    0.34734   0.44870   0.80968   Biso      1.000     C          0.160773  
         C65       1.0000    0.26691   0.48512   0.78259   Biso      1.000     C          -0.030921           
         C66       1.0000    0.22952   0.52236   0.80090   Biso      1.000     C          -0.005851           
         C67       1.0000    0.27883   0.52386   0.84557   Biso      1.000     C          -0.170089           
         C68       1.0000    0.41020   0.49054   0.92214   Biso      1.000     C          0.603628  
         C69       1.0000    0.37641   0.40240   0.79677   Biso      1.000     C          -0.516973           
         C70       1.0000    0.33234   0.92214   0.58732   Biso      1.000     C          0.602975  
         C71       1.0000    0.89864   0.74162   0.44870   Biso      1.000     C          0.160834  
         C72       1.0000    0.94171   0.69327   0.45114   Biso      1.000     C          -0.196625           
         C73       1.0000    0.87012   0.63807   0.48831   Biso      1.000     C          0.011739  
         C74       1.0000    0.73309   0.78259   0.48512   Biso      1.000     C          -0.031153           
         C75       1.0000    0.77048   0.80090   0.52236   Biso      1.000     C          -0.004397           
         C76       1.0000    0.72117   0.84557   0.52386   Biso      1.000     C          -0.170795           
         C77       1.0000    0.58980   0.92214   0.49054   Biso      1.000     C          0.602437  
         C78       1.0000    0.62359   0.79677   0.40240   Biso      1.000     C          -0.516707           
         C79       1.0000    0.12988   0.48831   0.63807   Biso      1.000     C          0.011702  
         C80       1.0000    0.05829   0.45114   0.69327   Biso      1.000     C          -0.196651           
         C81       1.0000    0.10136   0.44870   0.74162   Biso      1.000     C          0.160832  
         C82       1.0000    0.21821   0.48512   0.73229   Biso      1.000     C          -0.030592           
         C83       1.0000    0.29284   0.52236   0.67674   Biso      1.000     C          -0.006263           
         C84       1.0000    0.24503   0.52386   0.63057   Biso      1.000     C          -0.170329           
         C85       1.0000    0.08034   0.49054   0.58732   Biso      1.000     C          0.603437  
         C86       1.0000    0.02599   0.40240   0.80083   Biso      1.000     C          -0.517848           
         C87       1.0000    0.76795   0.63807   0.87362   Biso      1.000     C          0.010661  
         C88       1.0000    0.75156   0.69327   0.85559   Biso      1.000     C          -0.19647  
         C89       1.0000    0.84298   0.74162   0.80968   Biso      1.000     C          0.160175  
         C90       1.0000    0.95050   0.73229   0.78259   Biso      1.000     C          -0.030844           
         C91       1.0000    0.96958   0.67674   0.80090   Biso      1.000     C          -0.006033           
         C92       1.0000    0.87560   0.63057   0.84557   Biso      1.000     C          -0.169599           
         C93       1.0000    0.66766   0.58732   0.92214   Biso      1.000     C          0.603859  
         C94       1.0000    0.82682   0.80083   0.79677   Biso      1.000     C          -0.517355           
         C95       1.0000    0.29284   0.32326   0.47764   Biso      1.000     C          -0.006334           
         C96       1.0000    0.24503   0.36943   0.47614   Biso      1.000     C          -0.17031  
         Cu1       1.0000    0.42073   0.00000   0.46571   Biso      1.000     Cu          0.866847  
         Cu2       1.0000    0.88644   0.46571   0.53429   Biso      1.000     Cu          0.875684  
         Cu3       1.0000    0.42073   0.53429   0.00000   Biso      1.000     Cu          0.876341  
         Cu4       1.0000    0.11356   0.53429   0.46571   Biso      1.000     Cu          0.875675  
         Cu5       1.0000    0.57927   0.00000   0.53429   Biso      1.000     Cu          0.872177  
         Cu6       1.0000    0.57927   0.46571   0.00000   Biso      1.000     Cu          0.876334  
         H1        1.0000    0.33720   0.36510   0.83000   Biso      1.000     H          0.168935  
         H2        1.0000    0.16720   0.19510   0.17000   Biso      1.000     H          0.169145  
         H3        1.0000    0.29290   0.40680   0.45000   Biso      1.000     H          0.135856  
         H4        1.0000    0.06580   0.17060   0.59390   Biso      1.000     H          0.163284  
         H5        1.0000    0.93620   0.19400   0.59360   Biso      1.000     H          0.172642  
         H6        1.0000    0.02790   0.19510   0.63490   Biso      1.000     H          0.16957   
         H7        1.0000    0.89520   0.23550   0.17060   Biso      1.000     H          0.163493  
         H8        1.0000    0.88610   0.14320   0.40680   Biso      1.000     H          0.136178  
         H9        1.0000    0.25780   0.19400   0.21240   Biso      1.000     H          0.172671  
         H10       1.0000    0.74220   0.21240   0.19400   Biso      1.000     H          0.172658  
         H11       1.0000    0.83280   0.17000   0.19510   Biso      1.000     H          0.169203  
         H12       1.0000    0.67840   0.12590   0.30100   Biso      1.000     H          0.131538  
         H13       1.0000    0.10480   0.17060   0.23550   Biso      1.000     H          0.163485  
         H14       1.0000    0.97210   0.63490   0.19510   Biso      1.000     H          0.169567  
         H15       1.0000    0.32160   0.30100   0.12590   Biso      1.000     H          0.131221  
         H16       1.0000    0.55250   0.57310   0.12590   Biso      1.000     H          0.131471  
         H17       1.0000    0.06380   0.59360   0.19400   Biso      1.000     H          0.172595  
         H18       1.0000    0.93420   0.59390   0.17060   Biso      1.000     H          0.163252  
         H19       1.0000    0.70710   0.45000   0.40680   Biso      1.000     H          0.135874  
         H20       1.0000    0.02060   0.57310   0.30100   Biso      1.000     H          0.130556  
         H21       1.0000    0.33720   0.17000   0.63490   Biso      1.000     H          0.168982  
         H22       1.0000    0.47020   0.21240   0.59360   Biso      1.000     H          0.173156  
         H23       1.0000    0.34030   0.23550   0.59390   Biso      1.000     H          0.162468  
         H24       1.0000    0.25710   0.14320   0.45000   Biso      1.000     H          0.136551  
         H25       1.0000    0.44750   0.12590   0.57310   Biso      1.000     H          0.131687  
         H26       1.0000    0.11390   0.40680   0.14320   Biso      1.000     H          0.135662  
         H27       1.0000    0.74290   0.45000   0.14320   Biso      1.000     H          0.135919  
         H28       1.0000    0.97940   0.30100   0.57310   Biso      1.000     H          0.130558  
         H29       1.0000    0.52980   0.59360   0.21240   Biso      1.000     H          0.173122  
         H30       1.0000    0.47020   0.40640   0.78760   Biso      1.000     H          0.17312   
         H31       1.0000    0.34030   0.40610   0.76450   Biso      1.000     H          0.162474  
         H32       1.0000    0.25710   0.55000   0.85680   Biso      1.000     H          0.135926  
         H33       1.0000    0.44750   0.42690   0.87410   Biso      1.000     H          0.131465  
         H34       1.0000    0.65970   0.59390   0.23550   Biso      1.000     H          0.162474  
         H35       1.0000    0.25780   0.78760   0.80600   Biso      1.000     H          0.172637  
         H36       1.0000    0.10480   0.76450   0.82940   Biso      1.000     H          0.163461  
         H37       1.0000    0.11390   0.85680   0.59320   Biso      1.000     H          0.136282  
         H38       1.0000    0.32160   0.87410   0.69900   Biso      1.000     H          0.131423  
         H39       1.0000    0.97210   0.80490   0.36510   Biso      1.000     H          0.169581  
         H40       1.0000    0.06380   0.80600   0.40640   Biso      1.000     H          0.172668  
         H41       1.0000    0.93420   0.82940   0.40610   Biso      1.000     H          0.163269  
         H42       1.0000    0.70710   0.59320   0.55000   Biso      1.000     H          0.135878  
         H43       1.0000    0.02060   0.69900   0.42690   Biso      1.000     H          0.130573  
         H44       1.0000    0.83280   0.80490   0.83000   Biso      1.000     H          0.169136  
         H45       1.0000    0.16720   0.83000   0.80490   Biso      1.000     H          0.16918   
         H46       1.0000    0.89520   0.82940   0.76450   Biso      1.000     H          0.1635    
         H47       1.0000    0.74220   0.80600   0.78760   Biso      1.000     H          0.172648  
         H48       1.0000    0.66280   0.63490   0.17000   Biso      1.000     H          0.168938  
         H49       1.0000    0.55250   0.87410   0.42690   Biso      1.000     H          0.131803  
         H50       1.0000    0.65970   0.76450   0.40610   Biso      1.000     H          0.162499  
         H51       1.0000    0.52980   0.78760   0.40640   Biso      1.000     H          0.173178  
         H52       1.0000    0.66280   0.83000   0.36510   Biso      1.000     H          0.169006  
         H53       1.0000    0.97940   0.42690   0.69900   Biso      1.000     H          0.130559  
         H54       1.0000    0.74290   0.85680   0.55000   Biso      1.000     H          0.136448  
         H55       1.0000    0.06580   0.40610   0.82940   Biso      1.000     H          0.163249  
         H56       1.0000    0.93620   0.40640   0.80600   Biso      1.000     H          0.172595  
         H57       1.0000    0.02790   0.36510   0.80490   Biso      1.000     H          0.169569  
         H58       1.0000    0.67840   0.69900   0.87410   Biso      1.000     H          0.131205  
         H59       1.0000    0.29290   0.55000   0.59320   Biso      1.000     H          0.135861  
         H60       1.0000    0.88610   0.59320   0.85680   Biso      1.000     H          0.13564   
         O1        1.0000    0.50329   0.94064   0.46230   Biso      1.000     O          -0.531095           
         O2        1.0000    0.15823   0.52120   0.53881   Biso      1.000     O          -0.53318  
         O3        1.0000    0.96559   0.46230   0.59706   Biso      1.000     O          -0.530862           
         O4        1.0000    0.69704   0.53881   0.93999   Biso      1.000     O          -0.533812           
         O5        1.0000    0.84177   0.53881   0.52120   Biso      1.000     O          -0.533177           
         O6        1.0000    0.03441   0.59706   0.46230   Biso      1.000     O          -0.530866           
         O7        1.0000    0.30296   0.93999   0.53881   Biso      1.000     O          -0.533734           
         O8        1.0000    0.63703   0.93999   0.52120   Biso      1.000     O          -0.532667           
         O9        1.0000    0.43735   0.94064   0.59706   Biso      1.000     O          -0.532497           
         O10       1.0000    0.56265   0.59706   0.94064   Biso      1.000     O          -0.531047           
         O11       1.0000    0.50329   0.53770   0.05936   Biso      1.000     O          -0.531127           
         O12       1.0000    0.30296   0.46119   0.06001   Biso      1.000     O          -0.533816           
         O13       1.0000    0.56265   0.05936   0.40294   Biso      1.000     O          -0.531034           
         O14       1.0000    0.69704   0.06001   0.46119   Biso      1.000     O          -0.533085           
         O15       1.0000    0.96559   0.40294   0.53770   Biso      1.000     O          -0.530848           
         O16       1.0000    0.15823   0.46119   0.47880   Biso      1.000     O          -0.533174           
         O17       1.0000    0.43735   0.40294   0.05936   Biso      1.000     O          -0.531065           
         O18       1.0000    0.03441   0.53770   0.40294   Biso      1.000     O          -0.530867           
         O19       1.0000    0.84177   0.47880   0.46119   Biso      1.000     O          -0.53317  
         O20       1.0000    0.49671   0.05936   0.53770   Biso      1.000     O          -0.53256  
         O21       1.0000    0.36297   0.06001   0.47880   Biso      1.000     O          -0.533317           
         O22       1.0000    0.36297   0.52120   0.93999   Biso      1.000     O          -0.533395           
         O23       1.0000    0.63703   0.47880   0.06001   Biso      1.000     O          -0.533405           
         O24       1.0000    0.49671   0.46230   0.94064   Biso      1.000     O          -0.53113 