
##########################################################################
#               Crystallographic Information Format file
#               Produced by PyCifRW module
#
#  This is a CIF file.  CIF has been adopted by the International
#  Union of Crystallography as the standard for data archiving and
#  transmission.
#
#  For information on this file format, follow the CIF links at
#  http://www.iucr.org
##########################################################################

data_image0

_cell_length_a                          12.2618
_cell_length_b                          25.7328
_cell_length_c                          25.7328
_cell_angle_alpha                       62.4736
_cell_angle_beta                        80.8607
_cell_angle_gamma                       99.1393
_symmetry_space_group_name_H-M          'P 1'
_symmetry_int_tables_number             1
loop_
  _symmetry_equiv_pos_as_xyz
         'x, y, z' 
loop_
  _atom_site_label
  _atom_site_occupancy
  _atom_site_fract_x
  _atom_site_fract_y
  _atom_site_fract_z
  _atom_site_thermal_displace_type
  _atom_site_B_iso_or_equiv
  _atom_site_type_symbol
  _atom_site_charge
         C1        1.0000    0.73320   0.36606   0.13101   Biso      1.000     C          -0.016362           
         C2        1.0000    0.85380   0.41390   0.78450   Biso      1.000     C          0.21129699999999998           
         C3        1.0000    0.91403   0.49731   0.91900   Biso      1.000     C          0.615155  
         C4        1.0000    0.79176   0.53050   0.84782   Biso      1.000     C          -0.056034           
         C5        1.0000    0.74515   0.52979   0.80154   Biso      1.000     C          -0.124627           
         C6        1.0000    0.77108   0.49457   0.77748   Biso      1.000     C          0.049219  
         C7        1.0000    0.84458   0.46027   0.79973   Biso      1.000     C          0.027598  
         C8        1.0000    0.88857   0.46143   0.84592   Biso      1.000     C          -0.086199           
         C9        1.0000    0.86421   0.49707   0.86899   Biso      1.000     C          -0.0173   
         C10       1.0000    0.63830   0.78450   0.80160   Biso      1.000     C          0.211934  
         C11       1.0000    0.36714   0.63394   0.49707   Biso      1.000     C          -0.015553           
         C12       1.0000    0.83303   0.91900   0.58369   Biso      1.000     C          0.609171  
         C13       1.0000    0.54669   0.80154   0.66867   Biso      1.000     C          -0.12254100000000001          
         C14       1.0000    0.54856   0.77748   0.72795   Biso      1.000     C          0.050598000000000004          
         C15       1.0000    0.64431   0.79973   0.74000   Biso      1.000     C          0.026756  
         C16       1.0000    0.73449   0.84592   0.69265   Biso      1.000     C          -0.08957000000000001          
         C17       1.0000    0.73320   0.86899   0.63394   Biso      1.000     C          -0.01108  
         C18       1.0000    0.14620   0.78450   0.41390   Biso      1.000     C          0.211418  
         C19       1.0000    0.08597   0.91900   0.49731   Biso      1.000     C          0.610849  
         C20       1.0000    0.20824   0.84782   0.53050   Biso      1.000     C          -0.057124           
         C21       1.0000    0.25485   0.80154   0.52979   Biso      1.000     C          -0.124221           
         C22       1.0000    0.63958   0.84782   0.62168   Biso      1.000     C          -0.058151999999999995         
         C23       1.0000    0.22892   0.77748   0.49457   Biso      1.000     C          0.049255  
         C24       1.0000    0.42714   0.69265   0.46143   Biso      1.000     C          -0.089861           
         C25       1.0000    0.27651   0.72795   0.49457   Biso      1.000     C          0.051085000000000005          
         C26       1.0000    0.63830   0.19840   0.21550   Biso      1.000     C          0.21163200000000001           
         C27       1.0000    0.83303   0.41631   0.08100   Biso      1.000     C          0.613486  
         C28       1.0000    0.63958   0.37832   0.15218   Biso      1.000     C          -0.057061           
         C29       1.0000    0.54669   0.33133   0.19846   Biso      1.000     C          -0.122991           
         C30       1.0000    0.54856   0.27205   0.22252   Biso      1.000     C          0.050413  
         C31       1.0000    0.64431   0.26000   0.20027   Biso      1.000     C          0.026411  
         C32       1.0000    0.73449   0.30735   0.15408   Biso      1.000     C          -0.088417           
         C33       1.0000    0.84458   0.20027   0.53973   Biso      1.000     C          0.02798   
         C34       1.0000    0.43990   0.58610   0.19840   Biso      1.000     C          0.211912  
         C35       1.0000    0.38431   0.74000   0.46027   Biso      1.000     C          0.028052999999999998          
         C36       1.0000    0.41672   0.50269   0.41631   Biso      1.000     C          0.615555  
         C37       1.0000    0.21536   0.47021   0.33133   Biso      1.000     C          -0.12426  
         C38       1.0000    0.27651   0.50543   0.27205   Biso      1.000     C          0.05123   
         C39       1.0000    0.38431   0.53973   0.26000   Biso      1.000     C          0.027997  
         C40       1.0000    0.42714   0.53857   0.30735   Biso      1.000     C          -0.089893           
         C41       1.0000    0.36714   0.50293   0.36606   Biso      1.000     C          -0.015537           
         C42       1.0000    0.43990   0.80160   0.41390   Biso      1.000     C          0.211727  
         C43       1.0000    0.41672   0.58369   0.49731   Biso      1.000     C          0.61556   
         C44       1.0000    0.26126   0.62168   0.53050   Biso      1.000     C          -0.057205           
         C45       1.0000    0.21536   0.66867   0.52979   Biso      1.000     C          -0.124261           
         C46       1.0000    0.26126   0.46950   0.37832   Biso      1.000     C          -0.057217           
         C47       1.0000    0.15542   0.79973   0.46027   Biso      1.000     C          0.027997  
         C48       1.0000    0.11143   0.84592   0.46143   Biso      1.000     C          -0.087311           
         C49       1.0000    0.13579   0.86899   0.49707   Biso      1.000     C          -0.012053           
         C50       1.0000    0.45331   0.19846   0.33133   Biso      1.000     C          -0.123151           
         C51       1.0000    0.36042   0.15218   0.37832   Biso      1.000     C          -0.058114           
         C52       1.0000    0.16697   0.08100   0.41631   Biso      1.000     C          0.609109  
         C53       1.0000    0.36170   0.21550   0.19840   Biso      1.000     C          0.211914  
         C54       1.0000    0.13579   0.50293   0.13101   Biso      1.000     C          -0.017376           
         C55       1.0000    0.11143   0.53857   0.15408   Biso      1.000     C          -0.086187           
         C56       1.0000    0.15542   0.53973   0.20027   Biso      1.000     C          0.02756   
         C57       1.0000    0.22892   0.50543   0.22252   Biso      1.000     C          0.049196  
         C58       1.0000    0.25485   0.47021   0.19846   Biso      1.000     C          -0.12463199999999999          
         C59       1.0000    0.45144   0.22252   0.27205   Biso      1.000     C          0.050718  
         C60       1.0000    0.20824   0.46950   0.15218   Biso      1.000     C          -0.055980999999999996         
         C61       1.0000    0.14620   0.58610   0.21550   Biso      1.000     C          0.211296  
         C62       1.0000    0.63286   0.36606   0.50293   Biso      1.000     C          -0.015534000000000001         
         C63       1.0000    0.57286   0.30735   0.53857   Biso      1.000     C          -0.089847           
         C64       1.0000    0.61569   0.26000   0.53973   Biso      1.000     C          0.028037  
         C65       1.0000    0.72349   0.27205   0.50543   Biso      1.000     C          0.051088999999999996          
         C66       1.0000    0.78464   0.33133   0.47021   Biso      1.000     C          -0.124279           
         C67       1.0000    0.73874   0.37832   0.46950   Biso      1.000     C          -0.057214           
         C68       1.0000    0.58328   0.41631   0.50269   Biso      1.000     C          0.6155579999999999  
         C69       1.0000    0.56010   0.19840   0.58610   Biso      1.000     C          0.21171500000000001           
         C70       1.0000    0.08597   0.50269   0.08100   Biso      1.000     C          0.615161  
         C71       1.0000    0.35569   0.20027   0.26000   Biso      1.000     C          0.026849  
         C72       1.0000    0.26551   0.15408   0.30735   Biso      1.000     C          -0.08967699999999999          
         C73       1.0000    0.26680   0.13101   0.36606   Biso      1.000     C          -0.010478           
         C74       1.0000    0.36170   0.80160   0.78450   Biso      1.000     C          0.21162399999999998           
         C75       1.0000    0.16697   0.58369   0.91900   Biso      1.000     C          0.613413  
         C76       1.0000    0.36042   0.62168   0.84782   Biso      1.000     C          -0.057025           
         C77       1.0000    0.45331   0.66867   0.80154   Biso      1.000     C          -0.12360299999999999          
         C78       1.0000    0.45144   0.72795   0.77748   Biso      1.000     C          0.050535000000000004          
         C79       1.0000    0.35569   0.74000   0.79973   Biso      1.000     C          0.026497000000000003          
         C80       1.0000    0.26551   0.69265   0.84592   Biso      1.000     C          -0.088572           
         C81       1.0000    0.26680   0.63394   0.86899   Biso      1.000     C          -0.01567  
         C82       1.0000    0.56010   0.41390   0.80160   Biso      1.000     C          0.21191500000000002           
         C83       1.0000    0.58328   0.49731   0.58369   Biso      1.000     C          0.615624  
         C84       1.0000    0.73874   0.53050   0.62168   Biso      1.000     C          -0.057562           
         C85       1.0000    0.78464   0.52979   0.66867   Biso      1.000     C          -0.123557           
         C86       1.0000    0.72349   0.49457   0.72795   Biso      1.000     C          0.051108  
         C87       1.0000    0.61569   0.46027   0.74000   Biso      1.000     C          0.027918000000000002          
         C88       1.0000    0.57286   0.46143   0.69265   Biso      1.000     C          -0.089783           
         C89       1.0000    0.63286   0.49707   0.63394   Biso      1.000     C          -0.016087999999999998         
         C90       1.0000    0.77108   0.22252   0.50543   Biso      1.000     C          0.04925   
         C91       1.0000    0.74515   0.19846   0.47021   Biso      1.000     C          -0.12423  
         C92       1.0000    0.79176   0.15218   0.46950   Biso      1.000     C          -0.057130999999999994         
         C93       1.0000    0.91403   0.08100   0.50269   Biso      1.000     C          0.610847  
         C94       1.0000    0.85380   0.21550   0.58610   Biso      1.000     C          0.211404  
         C95       1.0000    0.86421   0.13101   0.50293   Biso      1.000     C          -0.012057           
         C96       1.0000    0.88857   0.15408   0.53857   Biso      1.000     C          -0.087278           
         Cu1       1.0000    0.59513   0.54069   0.45931   Biso      1.000     Cu          0.882106  
         Cu2       1.0000    0.40487   0.45931   0.54069   Biso      1.000     Cu          0.882109  
         Cu3       1.0000    0.94556   0.54069   0.00000   Biso      1.000     Cu          0.88192   
         Cu4       1.0000    0.94556   0.00000   0.45931   Biso      1.000     Cu          0.8499389999999999  
         Cu5       1.0000    0.05444   0.00000   0.54069   Biso      1.000     Cu          0.850002  
         Cu6       1.0000    0.05444   0.45931   0.00000   Biso      1.000     Cu          0.881928  
         H1        1.0000    0.79301   0.42737   0.43993   Biso      1.000     H          0.113006  
         H2        1.0000    0.48380   0.43085   0.70490   Biso      1.000     H          0.123254  
         H3        1.0000    0.31531   0.44060   0.21580   Biso      1.000     H          0.100348  
         H4        1.0000    0.87471   0.55940   0.65640   Biso      1.000     H          0.099607  
         H5        1.0000    0.53111   0.65640   0.78420   Biso      1.000     H          0.099562  
         H6        1.0000    0.31531   0.78420   0.55940   Biso      1.000     H          0.10070499999999999           
         H7        1.0000    0.46889   0.78420   0.65640   Biso      1.000     H          0.09985   
         H8        1.0000    0.68469   0.55940   0.78420   Biso      1.000     H          0.100319  
         H9        1.0000    0.12529   0.65640   0.55940   Biso      1.000     H          0.099704  
         H10       1.0000    0.12529   0.44060   0.34360   Biso      1.000     H          0.09964500000000001           
         H11       1.0000    0.46889   0.34360   0.21580   Biso      1.000     H          0.099504  
         H12       1.0000    0.68469   0.21580   0.44060   Biso      1.000     H          0.100661  
         H13       1.0000    0.53111   0.21580   0.34360   Biso      1.000     H          0.099893  
         H14       1.0000    0.79192   0.55983   0.57239   Biso      1.000     H          0.11301300000000002           
         H15       1.0000    0.18869   0.70490   0.86426   Biso      1.000     H          0.12356600000000001           
         H16       1.0000    0.87471   0.34360   0.44060   Biso      1.000     H          0.099661  
         H17       1.0000    0.05295   0.86425   0.43085   Biso      1.000     H          0.122885  
         H18       1.0000    0.51620   0.56915   0.29510   Biso      1.000     H          0.12343299999999999           
         H19       1.0000    0.81131   0.29510   0.13574   Biso      1.000     H          0.12337999999999999           
         H20       1.0000    0.63569   0.42761   0.13222   Biso      1.000     H          0.112469  
         H21       1.0000    0.94705   0.13575   0.56915   Biso      1.000     H          0.122896  
         H22       1.0000    0.76705   0.13269   0.43993   Biso      1.000     H          0.11338800000000002           
         H23       1.0000    0.18869   0.13574   0.29510   Biso      1.000     H          0.12414000000000001           
         H24       1.0000    0.36564   0.13269   0.42737   Biso      1.000     H          0.113264  
         H25       1.0000    0.05295   0.56915   0.13575   Biso      1.000     H          0.122271  
         H26       1.0000    0.23295   0.43993   0.13269   Biso      1.000     H          0.112774  
         H27       1.0000    0.48380   0.29510   0.56915   Biso      1.000     H          0.123483  
         H28       1.0000    0.20699   0.57263   0.56007   Biso      1.000     H          0.113017  
         H29       1.0000    0.51620   0.70490   0.43085   Biso      1.000     H          0.12347000000000001           
         H30       1.0000    0.76705   0.56007   0.86731   Biso      1.000     H          0.11275999999999999           
         H31       1.0000    0.94705   0.43085   0.86425   Biso      1.000     H          0.12228399999999999           
         H32       1.0000    0.63569   0.86778   0.57239   Biso      1.000     H          0.11306400000000001           
         H33       1.0000    0.81131   0.86426   0.70490   Biso      1.000     H          0.12395   
         H34       1.0000    0.23295   0.86731   0.56007   Biso      1.000     H          0.113396  
         H35       1.0000    0.20699   0.43993   0.42737   Biso      1.000     H          0.11298299999999999           
         H36       1.0000    0.36564   0.57263   0.86731   Biso      1.000     H          0.112658  
         N1        1.0000    0.36420   0.23160   0.14700   Biso      1.000     N          -0.335953           
         N2        1.0000    0.48880   0.62140   0.14700   Biso      1.000     N          -0.336907           
         N3        1.0000    0.51120   0.37860   0.85300   Biso      1.000     N          -0.336968           
         N4        1.0000    0.36420   0.85300   0.76840   Biso      1.000     N          -0.336002           
         N5        1.0000    0.13260   0.76840   0.37860   Biso      1.000     N          -0.336077           
         N6        1.0000    0.63580   0.76840   0.85300   Biso      1.000     N          -0.336046           
         N7        1.0000    0.86740   0.37860   0.76840   Biso      1.000     N          -0.336435           
         N8        1.0000    0.51120   0.14700   0.62140   Biso      1.000     N          -0.336544           
         N9        1.0000    0.48880   0.85300   0.37860   Biso      1.000     N          -0.336569           
         N10       1.0000    0.63580   0.14700   0.23160   Biso      1.000     N          -0.336073           
         N11       1.0000    0.86740   0.23160   0.62140   Biso      1.000     N          -0.33605  
         N12       1.0000    0.13260   0.62140   0.23160   Biso      1.000     N          -0.336465           
         O1        1.0000    0.02184   0.53667   0.06287   Biso      1.000     O          -0.5296029999999999           
         O2        1.0000    0.64543   0.46907   0.46836   Biso      1.000     O          -0.530317           
         O3        1.0000    0.48517   0.46333   0.59954   Biso      1.000     O          -0.529271           
         O4        1.0000    0.11379   0.46836   0.06257   Biso      1.000     O          -0.529877           
         O5        1.0000    0.48517   0.40046   0.53667   Biso      1.000     O          -0.529369           
         O6        1.0000    0.08471   0.06287   0.40046   Biso      1.000     O          -0.520374           
         O7        1.0000    0.17636   0.06257   0.46907   Biso      1.000     O          -0.522796           
         O8        1.0000    0.97816   0.06287   0.53667   Biso      1.000     O          -0.522547           
         O9        1.0000    0.17636   0.53093   0.93743   Biso      1.000     O          -0.529849           
         O10       1.0000    0.08471   0.59954   0.93713   Biso      1.000     O          -0.527389           
         O11       1.0000    0.11379   0.93743   0.53164   Biso      1.000     O          -0.522839           
         O12       1.0000    0.02184   0.93713   0.46333   Biso      1.000     O          -0.522575           
         O13       1.0000    0.82364   0.93743   0.53093   Biso      1.000     O          -0.522786           
         O14       1.0000    0.88621   0.53164   0.93743   Biso      1.000     O          -0.529922           
         O15       1.0000    0.64543   0.53164   0.53093   Biso      1.000     O          -0.530271           
         O16       1.0000    0.97816   0.46333   0.93713   Biso      1.000     O          -0.529562           
         O17       1.0000    0.51483   0.59954   0.46333   Biso      1.000     O          -0.529399           
         O18       1.0000    0.35457   0.46836   0.46907   Biso      1.000     O          -0.530262           
         O19       1.0000    0.51483   0.53667   0.40046   Biso      1.000     O          -0.52936  
         O20       1.0000    0.82364   0.46907   0.06257   Biso      1.000     O          -0.5298390000000001           
         O21       1.0000    0.91529   0.40046   0.06287   Biso      1.000     O          -0.527299           
         O22       1.0000    0.88621   0.06257   0.46836   Biso      1.000     O          -0.522884           
         O23       1.0000    0.35457   0.53093   0.53164   Biso      1.000     O          -0.5302680000000001           
         O24       1.0000    0.91529   0.93713   0.59954   Biso      1.000     O          -0.520284 