
##########################################################################
#               Crystallographic Information Format file
#               Produced by PyCifRW module
#
#  This is a CIF file.  CIF has been adopted by the International
#  Union of Crystallography as the standard for data archiving and
#  transmission.
#
#  For information on this file format, follow the CIF links at
#  http://www.iucr.org
##########################################################################

data_image0

_cell_length_a                          9.3531
_cell_length_b                          9.8055
_cell_length_c                          16.1941
_cell_angle_alpha                       90
_cell_angle_beta                        90
_cell_angle_gamma                       90
_symmetry_space_group_name_H-M          'P 1'
_symmetry_int_tables_number             1
loop_
  _symmetry_equiv_pos_as_xyz
         'x, y, z' 
loop_
  _atom_site_label
  _atom_site_occupancy
  _atom_site_fract_x
  _atom_site_fract_y
  _atom_site_fract_z
  _atom_site_thermal_displace_type
  _atom_site_B_iso_or_equiv
  _atom_site_type_symbol
  _atom_site_charge
         C1        1.0000    0.31760   0.75420   0.00280   Biso      1.000     C          0.160444  
         C2        1.0000    0.24030   0.62100   0.40680   Biso      1.000     C          0.572167  
         C3        1.0000    0.31760   0.75420   0.49720   Biso      1.000     C          0.160445  
         C4        1.0000    0.25970   0.12100   0.09320   Biso      1.000     C          0.572167  
         C5        1.0000    0.18240   0.25420   0.00280   Biso      1.000     C          0.160445  
         C6        1.0000    0.75970   0.37900   0.90680   Biso      1.000     C          0.572167  
         C7        1.0000    0.68240   0.24580   0.99720   Biso      1.000     C          0.160445  
         C8        1.0000    0.25970   0.12100   0.40680   Biso      1.000     C          0.572168  
         C9        1.0000    0.81760   0.74580   0.50280   Biso      1.000     C          0.160444  
         C10       1.0000    0.18240   0.25420   0.49720   Biso      1.000     C          0.160444  
         C11       1.0000    0.74030   0.87900   0.90680   Biso      1.000     C          0.572168  
         C12       1.0000    0.81760   0.74580   0.99720   Biso      1.000     C          0.160444  
         C13       1.0000    0.24030   0.62100   0.09320   Biso      1.000     C          0.572168  
         C14       1.0000    0.97530   0.14040   0.75000   Biso      1.000     C          0.8704059999999999  
         C15       1.0000    0.47530   0.35960   0.25000   Biso      1.000     C          0.8704059999999999  
         C16       1.0000    0.02470   0.85960   0.25000   Biso      1.000     C          0.8704059999999999  
         C17       1.0000    0.52470   0.64040   0.75000   Biso      1.000     C          0.8704059999999999  
         C18       1.0000    0.68240   0.24580   0.50280   Biso      1.000     C          0.160445  
         C19       1.0000    0.74030   0.87900   0.59320   Biso      1.000     C          0.572168  
         C20       1.0000    0.75970   0.37900   0.59320   Biso      1.000     C          0.572167  
         H1        1.0000    0.32960   0.97870   0.33520   Biso      1.000     H          0.365846  
         H2        1.0000    0.67260   0.17080   0.03190   Biso      1.000     H          0.10584600000000001           
         H3        1.0000    0.67040   0.02130   0.66480   Biso      1.000     H          0.365846  
         H4        1.0000    0.82740   0.67080   0.46810   Biso      1.000     H          0.10584600000000001           
         H5        1.0000    0.17040   0.47870   0.33520   Biso      1.000     H          0.365846  
         H6        1.0000    0.08120   0.60440   0.33170   Biso      1.000     H          0.360724  
         H7        1.0000    0.32740   0.82920   0.53190   Biso      1.000     H          0.10584600000000001           
         H8        1.0000    0.32960   0.97870   0.16480   Biso      1.000     H          0.365846  
         H9        1.0000    0.41880   0.10440   0.16830   Biso      1.000     H          0.360724  
         H10       1.0000    0.17260   0.32920   0.96810   Biso      1.000     H          0.10584600000000001           
         H11       1.0000    0.82960   0.52130   0.83520   Biso      1.000     H          0.365846  
         H12       1.0000    0.91880   0.39560   0.83170   Biso      1.000     H          0.360724  
         H13       1.0000    0.58120   0.89560   0.66830   Biso      1.000     H          0.360724  
         H14       1.0000    0.08120   0.60440   0.16830   Biso      1.000     H          0.360724  
         H15       1.0000    0.32740   0.82920   0.96810   Biso      1.000     H          0.10584600000000001           
         H16       1.0000    0.17260   0.32920   0.53190   Biso      1.000     H          0.10584600000000001           
         H17       1.0000    0.82960   0.52130   0.66480   Biso      1.000     H          0.365846  
         H18       1.0000    0.91880   0.39560   0.66830   Biso      1.000     H          0.360724  
         H19       1.0000    0.41880   0.10440   0.33170   Biso      1.000     H          0.360724  
         H20       1.0000    0.67040   0.02130   0.83520   Biso      1.000     H          0.365846  
         H21       1.0000    0.58120   0.89560   0.83170   Biso      1.000     H          0.360724  
         H22       1.0000    0.82740   0.67080   0.03190   Biso      1.000     H          0.10584600000000001           
         H23       1.0000    0.17040   0.47870   0.16480   Biso      1.000     H          0.365846  
         H24       1.0000    0.67260   0.17080   0.46810   Biso      1.000     H          0.10584600000000001           
         N1        1.0000    0.78630   0.25720   0.94080   Biso      1.000     N          -0.4313   
         N2        1.0000    0.59760   0.34870   0.50110   Biso      1.000     N          -0.18622  
         N3        1.0000    0.14550   0.06090   0.44020   Biso      1.000     N          -0.333942           
         N4        1.0000    0.09760   0.15130   0.49890   Biso      1.000     N          -0.18621300000000002          
         N5        1.0000    0.28630   0.24280   0.44080   Biso      1.000     N          -0.4313   
         N6        1.0000    0.34660   0.06080   0.35120   Biso      1.000     N          -0.746658           
         N7        1.0000    0.64550   0.43910   0.55980   Biso      1.000     N          -0.333936           
         N8        1.0000    0.84660   0.43920   0.85120   Biso      1.000     N          -0.746658           
         N9        1.0000    0.71370   0.75720   0.94080   Biso      1.000     N          -0.4313   
         N10       1.0000    0.84660   0.43920   0.64880   Biso      1.000     N          -0.746658           
         N11       1.0000    0.85450   0.93910   0.94020   Biso      1.000     N          -0.333942           
         N12       1.0000    0.90240   0.84870   0.99890   Biso      1.000     N          -0.18621300000000002          
         N13       1.0000    0.65340   0.93920   0.85120   Biso      1.000     N          -0.746658           
         N14       1.0000    0.35450   0.56090   0.05980   Biso      1.000     N          -0.333943           
         N15       1.0000    0.40240   0.65130   0.00110   Biso      1.000     N          -0.18621300000000002          
         N16       1.0000    0.21370   0.74280   0.05920   Biso      1.000     N          -0.4313   
         N17       1.0000    0.59760   0.34870   0.99890   Biso      1.000     N          -0.186221           
         N18       1.0000    0.78630   0.25720   0.55920   Biso      1.000     N          -0.4313   
         N19       1.0000    0.64550   0.43910   0.94020   Biso      1.000     N          -0.333935           
         N20       1.0000    0.85450   0.93910   0.55980   Biso      1.000     N          -0.333943           
         N21       1.0000    0.28630   0.24280   0.05920   Biso      1.000     N          -0.4313   
         N22       1.0000    0.09760   0.15130   0.00110   Biso      1.000     N          -0.18622  
         N23       1.0000    0.14550   0.06090   0.05980   Biso      1.000     N          -0.333935           
         N24       1.0000    0.15340   0.56080   0.35120   Biso      1.000     N          -0.746658           
         N25       1.0000    0.21370   0.74280   0.44080   Biso      1.000     N          -0.4313   
         N26       1.0000    0.40240   0.65130   0.49890   Biso      1.000     N          -0.18622  
         N27       1.0000    0.35450   0.56090   0.44020   Biso      1.000     N          -0.333935           
         N28       1.0000    0.65340   0.93920   0.64880   Biso      1.000     N          -0.746658           
         N29       1.0000    0.71370   0.75720   0.55920   Biso      1.000     N          -0.4313   
         N30       1.0000    0.90240   0.84870   0.50110   Biso      1.000     N          -0.18621300000000002          
         N31       1.0000    0.34660   0.06080   0.14880   Biso      1.000     N          -0.746658           
         N32       1.0000    0.15340   0.56080   0.14880   Biso      1.000     N          -0.746658           
         O1        1.0000    0.45820   0.66220   0.81800   Biso      1.000     O          -0.659934           
         O2        1.0000    0.95820   0.83780   0.31800   Biso      1.000     O          -0.659934           
         O3        1.0000    0.45820   0.66220   0.68200   Biso      1.000     O          -0.659934           
         O4        1.0000    0.34980   0.39010   0.25000   Biso      1.000     O          -0.712344           
         O5        1.0000    0.04180   0.16220   0.81800   Biso      1.000     O          -0.659933           
         O6        1.0000    0.54180   0.33780   0.18200   Biso      1.000     O          -0.659933           
         O7        1.0000    0.84980   0.10990   0.75000   Biso      1.000     O          -0.712344           
         O8        1.0000    0.95820   0.83780   0.18200   Biso      1.000     O          -0.659934           
         O9        1.0000    0.54180   0.33780   0.31800   Biso      1.000     O          -0.659934           
         O10       1.0000    0.65020   0.60990   0.75000   Biso      1.000     O          -0.712344           
         O11       1.0000    0.15020   0.89010   0.25000   Biso      1.000     O          -0.7123430000000001           
         O12       1.0000    0.04180   0.16220   0.68200   Biso      1.000     O          -0.659935           
         Zn1       1.0000    0.44050   0.37998   0.08234   Biso      1.000     Zn          0.713989  
         Zn2       1.0000    0.94050   0.12002   0.91766   Biso      1.000     Zn          0.713989  
         Zn3       1.0000    0.55950   0.62002   0.58234   Biso      1.000     Zn          0.713988  
         Zn4       1.0000    0.05950   0.87998   0.41766   Biso      1.000     Zn          0.713989  
         Zn5       1.0000    0.55950   0.62002   0.91766   Biso      1.000     Zn          0.713988  
         Zn6       1.0000    0.05950   0.87998   0.08234   Biso      1.000     Zn          0.713987  
         Zn7       1.0000    0.44050   0.37998   0.41766   Biso      1.000     Zn          0.713988  
         Zn8       1.0000    0.94050   0.12002   0.58234   Biso      1.000     Zn          0.71399 