
##########################################################################
#               Crystallographic Information Format file
#               Produced by PyCifRW module
#
#  This is a CIF file.  CIF has been adopted by the International
#  Union of Crystallography as the standard for data archiving and
#  transmission.
#
#  For information on this file format, follow the CIF links at
#  http://www.iucr.org
##########################################################################

data_image0

_cell_length_a                          9.0436
_cell_length_b                          9.7308
_cell_length_c                          17.3916
_cell_angle_alpha                       94.4309
_cell_angle_beta                        105.07
_cell_angle_gamma                       90
_symmetry_space_group_name_H-M          'P 1'
_symmetry_int_tables_number             1
loop_
  _symmetry_equiv_pos_as_xyz
         'x, y, z' 
loop_
  _atom_site_label
  _atom_site_occupancy
  _atom_site_fract_x
  _atom_site_fract_y
  _atom_site_fract_z
  _atom_site_thermal_displace_type
  _atom_site_B_iso_or_equiv
  _atom_site_type_symbol
  _atom_site_charge
         C1        1.0000    0.15794   0.39660   0.24188   Biso      1.000     C          0.558242  
         C2        1.0000    0.08394   0.89660   0.24188   Biso      1.000     C          0.558843  
         C3        1.0000    0.16648   0.80680   0.34916   Biso      1.000     C          0.176401  
         C4        1.0000    0.93174   0.45120   0.48648   Biso      1.000     C          0.47626999999999997           
         C5        1.0000    0.41520   0.98110   0.84780   Biso      1.000     C          0.5624060000000001  
         C6        1.0000    0.43075   0.09660   0.75350   Biso      1.000     C          0.16853900000000002           
         C7        1.0000    0.84206   0.60340   0.75812   Biso      1.000     C          0.558242  
         C8        1.0000    0.81732   0.69320   0.65084   Biso      1.000     C          0.178668  
         C9        1.0000    0.44526   0.04880   0.51352   Biso      1.000     C          0.477617  
         C10       1.0000    0.67725   0.40340   0.24650   Biso      1.000     C          0.169692  
         C11       1.0000    0.43260   0.48110   0.84780   Biso      1.000     C          0.564166  
         C12       1.0000    0.83352   0.19320   0.65084   Biso      1.000     C          0.176399  
         C13       1.0000    0.06826   0.54880   0.51352   Biso      1.000     C          0.47626899999999994           
         C14       1.0000    0.58480   0.01890   0.15220   Biso      1.000     C          0.5624060000000001  
         C15       1.0000    0.56925   0.90340   0.24650   Biso      1.000     C          0.16853900000000002           
         C16       1.0000    0.18268   0.30680   0.34916   Biso      1.000     C          0.17866700000000002           
         C17       1.0000    0.55474   0.95120   0.48648   Biso      1.000     C          0.477616  
         C18       1.0000    0.73680   0.75000   0.00000   Biso      1.000     C          0.8409190000000001  
         C19       1.0000    0.26320   0.25000   0.00000   Biso      1.000     C          0.840918  
         C20       1.0000    0.91606   0.10340   0.75812   Biso      1.000     C          0.558844  
         C21       1.0000    0.56740   0.51890   0.15220   Biso      1.000     C          0.564166  
         C22       1.0000    0.32275   0.59660   0.75350   Biso      1.000     C          0.169693  
         H1        1.0000    0.86780   0.95240   0.81580   Biso      1.000     H          0.350986  
         H2        1.0000    0.47990   0.64000   0.06920   Biso      1.000     H          0.36459400000000003           
         H3        1.0000    0.37920   0.51800   0.06740   Biso      1.000     H          0.362613  
         H4        1.0000    0.13220   0.04760   0.18420   Biso      1.000     H          0.350986  
         H5        1.0000    0.99200   0.96790   0.13880   Biso      1.000     H          0.35786799999999996           
         H6        1.0000    0.69830   0.33480   0.28200   Biso      1.000     H          0.106421  
         H7        1.0000    0.22670   0.78900   0.39940   Biso      1.000     H          0.10956199999999999           
         H8        1.0000    0.31180   0.98200   0.93260   Biso      1.000     H          0.361439  
         H9        1.0000    0.94800   0.45240   0.81580   Biso      1.000     H          0.35123699999999997           
         H10       1.0000    0.85320   0.53210   0.86120   Biso      1.000     H          0.357459  
         H11       1.0000    0.41630   0.16520   0.71800   Biso      1.000     H          0.106572  
         H12       1.0000    0.41070   0.86000   0.93080   Biso      1.000     H          0.36392800000000003           
         H13       1.0000    0.52010   0.36000   0.93080   Biso      1.000     H          0.36459400000000003           
         H14       1.0000    0.00800   0.03210   0.86120   Biso      1.000     H          0.357869  
         H15       1.0000    0.82730   0.71100   0.60060   Biso      1.000     H          0.108482  
         H16       1.0000    0.77330   0.21100   0.60060   Biso      1.000     H          0.10956300000000001           
         H17       1.0000    0.58930   0.14000   0.06920   Biso      1.000     H          0.363927  
         H18       1.0000    0.68820   0.01800   0.06740   Biso      1.000     H          0.36144   
         H19       1.0000    0.30170   0.66520   0.71800   Biso      1.000     H          0.106421  
         H20       1.0000    0.14680   0.46790   0.13880   Biso      1.000     H          0.357459  
         H21       1.0000    0.58370   0.83480   0.28200   Biso      1.000     H          0.106572  
         H22       1.0000    0.17270   0.28900   0.39940   Biso      1.000     H          0.108482  
         H23       1.0000    0.05200   0.54760   0.18420   Biso      1.000     H          0.35123699999999997           
         H24       1.0000    0.62080   0.48200   0.93260   Biso      1.000     H          0.362614  
         N1        1.0000    0.80372   0.08960   0.69204   Biso      1.000     N          -0.41619700000000004          
         N2        1.0000    0.88832   0.58960   0.69204   Biso      1.000     N          -0.41687399999999997          
         N3        1.0000    0.88667   0.51880   0.81934   Biso      1.000     N          -0.758454           
         N4        1.0000    0.30112   0.41590   0.81164   Biso      1.000     N          -0.341485           
         N5        1.0000    0.23151   0.49310   0.74942   Biso      1.000     N          -0.19271  
         N6        1.0000    0.45087   0.59650   0.81354   Biso      1.000     N          -0.429084           
         N7        1.0000    0.53741   0.43540   0.91162   Biso      1.000     N          -0.754578           
         N8        1.0000    0.01193   0.20660   0.75906   Biso      1.000     N          -0.345553           
         N9        1.0000    0.95587   0.26620   0.68874   Biso      1.000     N          -0.200489           
         N10       1.0000    0.11333   0.48120   0.18066   Biso      1.000     N          -0.758454           
         N11       1.0000    0.48948   0.08410   0.18836   Biso      1.000     N          -0.340563           
         N12       1.0000    0.48209   0.00690   0.25058   Biso      1.000     N          -0.19353299999999998          
         N13       1.0000    0.63733   0.90350   0.18646   Biso      1.000     N          -0.426771           
         N14       1.0000    0.62579   0.06460   0.08838   Biso      1.000     N          -0.752021           
         N15       1.0000    0.25287   0.29340   0.24094   Biso      1.000     N          -0.343597           
         N16       1.0000    0.26713   0.23380   0.31126   Biso      1.000     N          -0.20231400000000002          
         N17       1.0000    0.11168   0.41040   0.30796   Biso      1.000     N          -0.41687399999999997          
         N18       1.0000    0.73287   0.76620   0.68874   Biso      1.000     N          -0.202323           
         N19       1.0000    0.93267   0.01880   0.81934   Biso      1.000     N          -0.758672           
         N20       1.0000    0.74713   0.70660   0.75906   Biso      1.000     N          -0.343588           
         N21       1.0000    0.69888   0.58410   0.18836   Biso      1.000     N          -0.341486           
         N22       1.0000    0.36267   0.09650   0.81354   Biso      1.000     N          -0.426771           
         N23       1.0000    0.51791   0.99310   0.74942   Biso      1.000     N          -0.19353800000000002          
         N24       1.0000    0.51052   0.91590   0.81164   Biso      1.000     N          -0.340557           
         N25       1.0000    0.06733   0.98120   0.18066   Biso      1.000     N          -0.758672           
         N26       1.0000    0.19628   0.91040   0.30796   Biso      1.000     N          -0.41619799999999996          
         N27       1.0000    0.04413   0.73380   0.31126   Biso      1.000     N          -0.200499           
         N28       1.0000    0.98807   0.79340   0.24094   Biso      1.000     N          -0.345543           
         N29       1.0000    0.46259   0.56460   0.08838   Biso      1.000     N          -0.754578           
         N30       1.0000    0.54913   0.40350   0.18646   Biso      1.000     N          -0.429083           
         N31       1.0000    0.76849   0.50690   0.25058   Biso      1.000     N          -0.19271  
         N32       1.0000    0.37421   0.93540   0.91162   Biso      1.000     N          -0.752021           
         O1        1.0000    0.77685   0.74080   0.93430   Biso      1.000     O          -0.641258           
         O2        1.0000    0.34697   0.10250   0.45994   Biso      1.000     O          -0.506217           
         O3        1.0000    0.15745   0.24080   0.93430   Biso      1.000     O          -0.640221           
         O4        1.0000    0.12253   0.57560   0.58626   Biso      1.000     O          -0.498209           
         O5        1.0000    0.65303   0.89750   0.54006   Biso      1.000     O          -0.506216           
         O6        1.0000    0.11297   0.60250   0.45994   Biso      1.000     O          -0.505201           
         O7        1.0000    0.22315   0.25920   0.06570   Biso      1.000     O          -0.641258           
         O8        1.0000    0.53627   0.92440   0.41374   Biso      1.000     O          -0.499069           
         O9        1.0000    0.46373   0.07560   0.58626   Biso      1.000     O          -0.499069           
         O10       1.0000    0.88703   0.39750   0.54006   Biso      1.000     O          -0.505202           
         O11       1.0000    0.40200   0.25000   0.00000   Biso      1.000     O          -0.7116939999999999           
         O12       1.0000    0.84255   0.75920   0.06570   Biso      1.000     O          -0.640221           
         O13       1.0000    0.59800   0.75000   0.00000   Biso      1.000     O          -0.7116939999999999           
         O14       1.0000    0.87747   0.42440   0.41374   Biso      1.000     O          -0.498209           
         Zn1       1.0000    0.37633   0.05304   0.34292   Biso      1.000     Zn          0.705905  
         Zn2       1.0000    0.38260   0.25961   0.16426   Biso      1.000     Zn          0.7151069999999999  
         Zn3       1.0000    0.03341   0.44696   0.65708   Biso      1.000     Zn          0.705026  
         Zn4       1.0000    0.21834   0.24039   0.83574   Biso      1.000     Zn          0.715804  
         Zn5       1.0000    0.62367   0.94696   0.65708   Biso      1.000     Zn          0.705906  
         Zn6       1.0000    0.61740   0.74039   0.83574   Biso      1.000     Zn          0.715105  
         Zn7       1.0000    0.96659   0.55304   0.34292   Biso      1.000     Zn          0.705026  
         Zn8       1.0000    0.78166   0.75961   0.16426   Biso      1.000     Zn          0.715803 