
##########################################################################
#               Crystallographic Information Format file
#               Produced by PyCifRW module
#
#  This is a CIF file.  CIF has been adopted by the International
#  Union of Crystallography as the standard for data archiving and
#  transmission.
#
#  For information on this file format, follow the CIF links at
#  http://www.iucr.org
##########################################################################

data_image0

_cell_length_a                          9.1631
_cell_length_b                          9.1631
_cell_length_c                          14.8213
_cell_angle_alpha                       100.019
_cell_angle_beta                        100.02
_cell_angle_gamma                       115.923
_symmetry_space_group_name_H-M          'P 1'
_symmetry_int_tables_number             1
loop_
  _symmetry_equiv_pos_as_xyz
         'x, y, z' 
loop_
  _atom_site_label
  _atom_site_occupancy
  _atom_site_fract_x
  _atom_site_fract_y
  _atom_site_fract_z
  _atom_site_thermal_displace_type
  _atom_site_B_iso_or_equiv
  _atom_site_type_symbol
  _atom_site_charge
         C1        1.0000    0.28880   0.11760   0.07900   Biso      1.000     C          -0.312419           
         C2        1.0000    0.56117   0.74437   0.93754   Biso      1.000     C          0.708789  
         C3        1.0000    0.71120   0.88240   0.92100   Biso      1.000     C          -0.312419           
         C4        1.0000    0.46140   0.79020   0.57900   Biso      1.000     C          -0.308949           
         C5        1.0000    0.75563   0.93883   0.56246   Biso      1.000     C          0.708834  
         C6        1.0000    0.61760   0.78880   0.57900   Biso      1.000     C          -0.312394           
         C7        1.0000    0.12363   0.80683   0.06246   Biso      1.000     C          0.710023  
         C8        1.0000    0.29020   0.96140   0.07900   Biso      1.000     C          -0.308944           
         C9        1.0000    0.70980   0.03860   0.92100   Biso      1.000     C          -0.308944           
         C10       1.0000    0.43883   0.25563   0.06246   Biso      1.000     C          0.708789  
         C11       1.0000    0.53860   0.20980   0.42100   Biso      1.000     C          -0.308949           
         C12       1.0000    0.24437   0.06117   0.43754   Biso      1.000     C          0.708834  
         C13       1.0000    0.38240   0.21120   0.42100   Biso      1.000     C          -0.312394           
         C14       1.0000    0.17510   0.32490   0.75000   Biso      1.000     C          0.522109  
         C15       1.0000    0.07490   0.42510   0.75000   Biso      1.000     C          0.523626  
         C16       1.0000    0.82490   0.67510   0.25000   Biso      1.000     C          0.522109  
         C17       1.0000    0.92510   0.57490   0.25000   Biso      1.000     C          0.523626  
         C18       1.0000    0.69317   0.37637   0.43754   Biso      1.000     C          0.710033  
         C19       1.0000    0.87637   0.19317   0.93754   Biso      1.000     C          0.710023  
         C20       1.0000    0.30683   0.62363   0.56246   Biso      1.000     C          0.710033  
         H1        1.0000    0.40770   0.31110   0.46960   Biso      1.000     H          0.138961  
         H2        1.0000    0.65850   0.06190   0.96960   Biso      1.000     H          0.137236  
         H3        1.0000    0.63670   0.02170   0.85980   Biso      1.000     H          0.141004  
         H4        1.0000    0.33810   0.22310   0.35980   Biso      1.000     H          0.14082   
         H5        1.0000    0.72310   0.83810   0.85980   Biso      1.000     H          0.140839  
         H6        1.0000    0.43810   0.84150   0.53040   Biso      1.000     H          0.137237  
         H7        1.0000    0.47830   0.86330   0.64020   Biso      1.000     H          0.141003  
         H8        1.0000    0.59230   0.68890   0.53040   Biso      1.000     H          0.138961  
         H9        1.0000    0.81110   0.90770   0.96960   Biso      1.000     H          0.138959  
         H10       1.0000    0.34150   0.93810   0.03040   Biso      1.000     H          0.137236  
         H11       1.0000    0.36330   0.97830   0.14020   Biso      1.000     H          0.141004  
         H12       1.0000    0.18890   0.09230   0.03040   Biso      1.000     H          0.138958  
         H13       1.0000    0.27690   0.16190   0.14020   Biso      1.000     H          0.140839  
         H14       1.0000    0.56190   0.15850   0.46960   Biso      1.000     H          0.137237  
         H15       1.0000    0.52170   0.13670   0.35980   Biso      1.000     H          0.141003  
         H16       1.0000    0.66190   0.77690   0.64020   Biso      1.000     H          0.14082   
         O1        1.0000    0.86727   0.91801   0.53288   Biso      1.000     O          -0.761161           
         O2        1.0000    0.99869   0.81781   0.07970   Biso      1.000     O          -0.620699           
         O3        1.0000    0.73798   0.66034   0.17052   Biso      1.000     O          -0.607074           
         O4        1.0000    0.11487   0.66561   0.03288   Biso      1.000     O          -0.760741           
         O5        1.0000    0.58101   0.26189   0.07970   Biso      1.000     O          -0.619632           
         O6        1.0000    0.83439   0.38513   0.46712   Biso      1.000     O          -0.760737           
         O7        1.0000    0.41801   0.36727   0.03288   Biso      1.000     O          -0.761121           
         O8        1.0000    0.23811   0.91899   0.42030   Biso      1.000     O          -0.619653           
         O9        1.0000    0.83966   0.76202   0.32948   Biso      1.000     O          -0.607093           
         O10       1.0000    0.01018   0.43254   0.67052   Biso      1.000     O          -0.607598           
         O11       1.0000    0.68219   0.50131   0.42030   Biso      1.000     O          -0.620716           
         O12       1.0000    0.93254   0.51018   0.17052   Biso      1.000     O          -0.607598           
         O13       1.0000    0.76189   0.08101   0.57970   Biso      1.000     O          -0.619653           
         O14       1.0000    0.13273   0.08199   0.46712   Biso      1.000     O          -0.761161           
         O15       1.0000    0.16034   0.23798   0.67052   Biso      1.000     O          -0.607093           
         O16       1.0000    0.31781   0.49869   0.57970   Biso      1.000     O          -0.620716           
         O17       1.0000    0.58199   0.63273   0.96712   Biso      1.000     O          -0.761121           
         O18       1.0000    0.06746   0.48982   0.82948   Biso      1.000     O          -0.607598           
         O19       1.0000    0.41899   0.73811   0.92030   Biso      1.000     O          -0.619632           
         O20       1.0000    0.88513   0.33439   0.96712   Biso      1.000     O          -0.760741           
         O21       1.0000    0.26202   0.33966   0.82948   Biso      1.000     O          -0.607074           
         O22       1.0000    0.00131   0.18219   0.92030   Biso      1.000     O          -0.620699           
         O23       1.0000    0.98982   0.56746   0.32948   Biso      1.000     O          -0.607598           
         O24       1.0000    0.16561   0.61487   0.53288   Biso      1.000     O          -0.760737           
         Pr1       1.0000    0.99054   0.74054   0.48108   Biso      1.000     Pr          2.098536  
         Pr2       1.0000    0.75946   0.50946   0.01892   Biso      1.000     Pr          2.098521  
         Pr3       1.0000    0.00946   0.25946   0.51892   Biso      1.000     Pr          2.098538  
         Pr4       1.0000    0.24054   0.49054   0.98108   Biso      1.000     Pr          2.098522 