
##########################################################################
#               Crystallographic Information Format file
#               Produced by PyCifRW module
#
#  This is a CIF file.  CIF has been adopted by the International
#  Union of Crystallography as the standard for data archiving and
#  transmission.
#
#  For information on this file format, follow the CIF links at
#  http://www.iucr.org
##########################################################################

data_image0

_cell_length_a                          6.975
_cell_length_b                          12.901
_cell_length_c                          13.551
_cell_angle_alpha                       90
_cell_angle_beta                        100.729
_cell_angle_gamma                       90
_symmetry_space_group_name_H-M          'P 1'
_symmetry_int_tables_number             1
loop_
  _symmetry_equiv_pos_as_xyz
         'x, y, z' 
loop_
  _atom_site_label
  _atom_site_occupancy
  _atom_site_fract_x
  _atom_site_fract_y
  _atom_site_fract_z
  _atom_site_thermal_displace_type
  _atom_site_B_iso_or_equiv
  _atom_site_type_symbol
  _atom_site_charge
         C1        1.0000    0.95900   0.71130   0.00580   Biso      1.000     C          0.648273  
         C2        1.0000    0.26200   0.00200   0.79730   Biso      1.000     C          0.617647  
         C3        1.0000    0.92800   0.06910   0.59280   Biso      1.000     C          0.637334  
         C4        1.0000    0.37300   0.87150   0.28730   Biso      1.000     C          0.096501  
         C5        1.0000    0.45900   0.79550   0.35780   Biso      1.000     C          0.070163  
         C6        1.0000    0.32300   0.98060   0.29670   Biso      1.000     C          0.638537  
         C7        1.0000    0.55700   0.80040   0.46590   Biso      1.000     C          0.618715  
         C8        1.0000    0.64400   0.82010   0.01560   Biso      1.000     C          0.031336  
         C9        1.0000    0.74600   0.73310   0.99240   Biso      1.000     C          0.040347  
         C10       1.0000    0.71300   0.92010   0.07210   Biso      1.000     C          0.627913  
         C11       1.0000    0.90900   0.01370   0.68930   Biso      1.000     C          0.058882  
         C12       1.0000    0.28700   0.42010   0.92790   Biso      1.000     C          0.627913  
         C13       1.0000    0.09100   0.51370   0.31070   Biso      1.000     C          0.058882  
         C14       1.0000    0.73800   0.50200   0.20270   Biso      1.000     C          0.617647  
         C15       1.0000    0.07200   0.56910   0.40720   Biso      1.000     C          0.637335  
         C16       1.0000    0.62700   0.37150   0.71270   Biso      1.000     C          0.096501  
         C17       1.0000    0.54100   0.29550   0.64220   Biso      1.000     C          0.070163  
         C18       1.0000    0.67700   0.48060   0.70330   Biso      1.000     C          0.638537  
         C19       1.0000    0.44300   0.30040   0.53410   Biso      1.000     C          0.618715  
         C20       1.0000    0.35600   0.32010   0.98440   Biso      1.000     C          0.031336  
         C21       1.0000    0.25400   0.23310   0.00760   Biso      1.000     C          0.040347  
         C22       1.0000    0.95500   0.48690   0.22610   Biso      1.000     C          0.068229  
         C23       1.0000    0.04500   0.98690   0.77390   Biso      1.000     C          0.068229  
         C24       1.0000    0.04100   0.21130   0.99420   Biso      1.000     C          0.648273  
         Ce1       1.0000    0.20663   0.96012   0.04123   Biso      1.000     Ce          1.991047  
         Ce2       1.0000    0.41472   0.03765   0.55864   Biso      1.000     Ce          2.05924   
         Ce3       1.0000    0.58528   0.53765   0.44136   Biso      1.000     Ce          2.05924   
         Ce4       1.0000    0.79337   0.46012   0.95877   Biso      1.000     Ce          1.991046  
         N1        1.0000    0.37500   0.15640   0.04620   Biso      1.000     N          -0.3653   
         N2        1.0000    0.54700   0.30630   0.00510   Biso      1.000     N          -0.43995  
         N3        1.0000    0.53700   0.20170   0.68460   Biso      1.000     N          -0.406023           
         N4        1.0000    0.68600   0.33210   0.80120   Biso      1.000     N          -0.392271           
         N5        1.0000    0.26900   0.48930   0.29980   Biso      1.000     N          -0.403317           
         N6        1.0000    0.02500   0.45250   0.15040   Biso      1.000     N          -0.364445           
         N7        1.0000    0.62500   0.65640   0.95380   Biso      1.000     N          -0.3653   
         N8        1.0000    0.45300   0.80630   0.99490   Biso      1.000     N          -0.43995  
         N9        1.0000    0.46300   0.70170   0.31540   Biso      1.000     N          -0.406023           
         N10       1.0000    0.31400   0.83210   0.19880   Biso      1.000     N          -0.392271           
         N11       1.0000    0.73100   0.98930   0.70020   Biso      1.000     N          -0.403317           
         N12       1.0000    0.97500   0.95250   0.84960   Biso      1.000     N          -0.364445           
         O1        1.0000    0.61500   0.71720   0.50940   Biso      1.000     O          -0.574906           
         O2        1.0000    0.34600   0.00430   0.89040   Biso      1.000     O          -0.643324           
         O3        1.0000    0.36030   0.00550   0.72990   Biso      1.000     O          -0.6631   
         O4        1.0000    0.07800   0.09280   0.57300   Biso      1.000     O          -0.592314           
         O5        1.0000    0.75700   0.08870   0.53530   Biso      1.000     O          -0.6506   
         O6        1.0000    0.25960   0.02890   0.21480   Biso      1.000     O          -0.586742           
         O7        1.0000    0.32900   0.02490   0.37990   Biso      1.000     O          -0.627374           
         O8        1.0000    0.00000   0.61540   0.00890   Biso      1.000     O          -0.668628           
         O9        1.0000    0.07300   0.78010   0.00520   Biso      1.000     O          -0.632309           
         O10       1.0000    0.58500   0.88800   0.50750   Biso      1.000     O          -0.648232           
         O11       1.0000    0.00000   0.11540   0.99110   Biso      1.000     O          -0.668628           
         O12       1.0000    0.88740   0.94110   0.09180   Biso      1.000     O          -0.613775           
         O13       1.0000    0.11260   0.44110   0.90820   Biso      1.000     O          -0.613775           
         O14       1.0000    0.65400   0.50430   0.10960   Biso      1.000     O          -0.643324           
         O15       1.0000    0.92700   0.28010   0.99480   Biso      1.000     O          -0.632309           
         O16       1.0000    0.92200   0.59280   0.42700   Biso      1.000     O          -0.592314           
         O17       1.0000    0.24300   0.58870   0.46470   Biso      1.000     O          -0.6506   
         O18       1.0000    0.63970   0.50550   0.27010   Biso      1.000     O          -0.6631   
         O19       1.0000    0.67100   0.52490   0.62010   Biso      1.000     O          -0.627374           
         O20       1.0000    0.57800   0.97270   0.09700   Biso      1.000     O          -0.621027           
         O21       1.0000    0.38500   0.21720   0.49060   Biso      1.000     O          -0.574906           
         O22       1.0000    0.42200   0.47270   0.90300   Biso      1.000     O          -0.621027           
         O23       1.0000    0.74040   0.52890   0.78520   Biso      1.000     O          -0.586742           
         O24       1.0000    0.41500   0.38800   0.49250   Biso      1.000     O          -0.648232           
         S1        1.0000    0.59690   0.19260   0.05230   Biso      1.000     S          0.596168  
         S2        1.0000    0.63290   0.20820   0.79900   Biso      1.000     S          0.536658  
         S3        1.0000    0.40310   0.69260   0.94770   Biso      1.000     S          0.596168  
         S4        1.0000    0.36710   0.70820   0.20100   Biso      1.000     S          0.536658  
         S5        1.0000    0.74170   0.94140   0.81170   Biso      1.000     S          0.556645  
         S6        1.0000    0.25830   0.44140   0.18830   Biso      1.000     S          0.556645 