
##########################################################################
#               Crystallographic Information Format file
#               Produced by PyCifRW module
#
#  This is a CIF file.  CIF has been adopted by the International
#  Union of Crystallography as the standard for data archiving and
#  transmission.
#
#  For information on this file format, follow the CIF links at
#  http://www.iucr.org
##########################################################################

data_image0

_cell_length_a                          7.325
_cell_length_b                          11.6185
_cell_length_c                          14.048
_cell_angle_alpha                       114.065
_cell_angle_beta                        91.5
_cell_angle_gamma                       103.56
_symmetry_space_group_name_H-M          'P 1'
_symmetry_int_tables_number             1
loop_
  _symmetry_equiv_pos_as_xyz
         'x, y, z' 
loop_
  _atom_site_label
  _atom_site_occupancy
  _atom_site_fract_x
  _atom_site_fract_y
  _atom_site_fract_z
  _atom_site_thermal_displace_type
  _atom_site_B_iso_or_equiv
  _atom_site_type_symbol
  _atom_site_charge
         C1        1.0000    0.41320   0.62610   0.27550   Biso      1.000     C          -0.138242           
         C2        1.0000    0.96250   0.20550   0.88880   Biso      1.000     C          0.111144  
         C3        1.0000    0.77770   0.22520   0.92950   Biso      1.000     C          -0.22985  
         C4        1.0000    0.79320   0.35020   0.02750   Biso      1.000     C          -0.126828           
         C5        1.0000    0.60120   0.36440   0.05860   Biso      1.000     C          -0.13966900000000002          
         C6        1.0000    0.60510   0.49060   0.15380   Biso      1.000     C          -0.135523           
         C7        1.0000    0.41130   0.49980   0.18520   Biso      1.000     C          -0.150293           
         C8        1.0000    0.66880   0.06870   0.16280   Biso      1.000     C          0.06729600000000001           
         C9        1.0000    0.21150   0.63760   0.29870   Biso      1.000     C          -0.18454600000000002          
         C10       1.0000    0.21010   0.76790   0.38150   Biso      1.000     C          0.012698000000000001          
         C11       1.0000    0.31560   0.97980   0.67190   Biso      1.000     C          0.045906  
         C12       1.0000    0.33120   0.93130   0.83720   Biso      1.000     C          0.067298  
         C13       1.0000    0.64270   0.91620   0.62970   Biso      1.000     C          0.045672000000000004          
         C14       1.0000    0.65590   0.87940   0.80180   Biso      1.000     C          0.061256  
         C15       1.0000    0.03750   0.79450   0.11120   Biso      1.000     C          0.11114600000000001           
         C16       1.0000    0.22230   0.77480   0.07050   Biso      1.000     C          -0.22985  
         C17       1.0000    0.20680   0.64980   0.97250   Biso      1.000     C          -0.126828           
         C18       1.0000    0.39880   0.63560   0.94140   Biso      1.000     C          -0.13966900000000002          
         C19       1.0000    0.39490   0.50940   0.84620   Biso      1.000     C          -0.135523           
         C20       1.0000    0.58870   0.50020   0.81480   Biso      1.000     C          -0.150293           
         C21       1.0000    0.58680   0.37390   0.72450   Biso      1.000     C          -0.138243           
         C22       1.0000    0.78850   0.36240   0.70130   Biso      1.000     C          -0.18454600000000002          
         C23       1.0000    0.78990   0.23210   0.61850   Biso      1.000     C          0.012698000000000001          
         C24       1.0000    0.68440   0.02020   0.32810   Biso      1.000     C          0.045904  
         C25       1.0000    0.34410   0.12060   0.19820   Biso      1.000     C          0.061253999999999996          
         C26       1.0000    0.35730   0.08380   0.37030   Biso      1.000     C          0.045670999999999996          
         Cd1       1.0000    0.00000   0.00000   0.00000   Biso      1.000     Cd          0.9014110000000001  
         Cd2       1.0000    0.00000   0.00000   0.50000   Biso      1.000     Cd          0.8825200000000001  
         H1        1.0000    0.05670   0.22450   0.67100   Biso      1.000     H          0.25200700000000004           
         H2        1.0000    0.05640   0.28470   0.57310   Biso      1.000     H          0.273447  
         H3        1.0000    0.70840   0.21790   0.54550   Biso      1.000     H          0.08501399999999999           
         H4        1.0000    0.70870   0.15770   0.64340   Biso      1.000     H          0.081973  
         H5        1.0000    0.87530   0.38100   0.77370   Biso      1.000     H          0.072562  
         H6        1.0000    0.51460   0.29230   0.74250   Biso      1.000     H          0.078962  
         H7        1.0000    0.50560   0.36620   0.65420   Biso      1.000     H          0.089902  
         H8        1.0000    0.65060   0.58090   0.79380   Biso      1.000     H          0.08892   
         H9        1.0000    0.85660   0.43800   0.67490   Biso      1.000     H          0.076599  
         H10       1.0000    0.32870   0.42520   0.86430   Biso      1.000     H          0.055803  
         H11       1.0000    0.49440   0.63380   0.34580   Biso      1.000     H          0.089902  
         H12       1.0000    0.34940   0.41910   0.20620   Biso      1.000     H          0.08892   
         H13       1.0000    0.31820   0.48860   0.11710   Biso      1.000     H          0.067264  
         H14       1.0000    0.67130   0.57480   0.13570   Biso      1.000     H          0.055803  
         H15       1.0000    0.68180   0.51140   0.88290   Biso      1.000     H          0.067264  
         H16       1.0000    0.52920   0.28240   0.07730   Biso      1.000     H          0.09601799999999999           
         H17       1.0000    0.48540   0.70770   0.25750   Biso      1.000     H          0.078962  
         H18       1.0000    0.50990   0.35930   0.99230   Biso      1.000     H          0.071741  
         H19       1.0000    0.88160   0.34830   0.09100   Biso      1.000     H          0.082272  
         H20       1.0000    0.70700   0.14560   0.94980   Biso      1.000     H          0.104729  
         H21       1.0000    0.68190   0.22820   0.86990   Biso      1.000     H          0.092396  
         H22       1.0000    0.03940   0.28970   0.87750   Biso      1.000     H          0.030492000000000002          
         H23       1.0000    0.11480   0.26880   0.03770   Biso      1.000     H          0.268441  
         H24       1.0000    0.21430   0.16810   0.93110   Biso      1.000     H          0.273059  
         H25       1.0000    0.86760   0.43260   0.01120   Biso      1.000     H          0.057009000000000004          
         H26       1.0000    0.12470   0.61900   0.22630   Biso      1.000     H          0.072562  
         H27       1.0000    0.69890   0.49940   0.22090   Biso      1.000     H          0.076348  
         H28       1.0000    0.29130   0.84230   0.35660   Biso      1.000     H          0.081973  
         H29       1.0000    0.14340   0.56200   0.32510   Biso      1.000     H          0.076599  
         H30       1.0000    0.47080   0.71760   0.92270   Biso      1.000     H          0.09601799999999999           
         H31       1.0000    0.49010   0.64070   0.00770   Biso      1.000     H          0.071741  
         H32       1.0000    0.13240   0.56740   0.98880   Biso      1.000     H          0.057009000000000004          
         H33       1.0000    0.11840   0.65170   0.90900   Biso      1.000     H          0.082272  
         H34       1.0000    0.29300   0.85440   0.05020   Biso      1.000     H          0.104729  
         H35       1.0000    0.30110   0.50060   0.77910   Biso      1.000     H          0.076348  
         H36       1.0000    0.96060   0.71030   0.12250   Biso      1.000     H          0.030492000000000002          
         H37       1.0000    0.88520   0.73120   0.96230   Biso      1.000     H          0.268441  
         H38       1.0000    0.78570   0.83190   0.06890   Biso      1.000     H          0.273059  
         H39       1.0000    0.94330   0.77550   0.32900   Biso      1.000     H          0.252006  
         H40       1.0000    0.94360   0.71530   0.42690   Biso      1.000     H          0.273446  
         H41       1.0000    0.29160   0.78210   0.45450   Biso      1.000     H          0.08501399999999999           
         H42       1.0000    0.31810   0.77180   0.13010   Biso      1.000     H          0.092396  
         N1        1.0000    0.76900   0.86590   0.85140   Biso      1.000     N          -0.401417           
         N2        1.0000    0.74620   0.91700   0.57070   Biso      1.000     N          -0.37511  
         N3        1.0000    0.23540   0.93640   0.90000   Biso      1.000     N          -0.372413           
         N4        1.0000    0.21370   0.01640   0.63640   Biso      1.000     N          -0.37855900000000003          
         N5        1.0000    0.02210   0.78820   0.40200   Biso      1.000     N          -0.527203           
         N6        1.0000    0.08110   0.18120   0.96120   Biso      1.000     N          -0.554898           
         N7        1.0000    0.76460   0.06360   0.10000   Biso      1.000     N          -0.372413           
         N8        1.0000    0.25380   0.08300   0.42930   Biso      1.000     N          -0.37511  
         N9        1.0000    0.78630   0.98360   0.36360   Biso      1.000     N          -0.37855900000000003          
         N10       1.0000    0.91890   0.81880   0.03880   Biso      1.000     N          -0.5549   
         N11       1.0000    0.23100   0.13410   0.14860   Biso      1.000     N          -0.401417           
         N12       1.0000    0.97790   0.21180   0.59800   Biso      1.000     N          -0.527203           
         Ni1       1.0000    0.51634   0.07716   0.26730   Biso      1.000     Ni          0.103657  
         Ni2       1.0000    0.48366   0.92284   0.73270   Biso      1.000     Ni          0.103654 