
##########################################################################
#               Crystallographic Information Format file
#               Produced by PyCifRW module
#
#  This is a CIF file.  CIF has been adopted by the International
#  Union of Crystallography as the standard for data archiving and
#  transmission.
#
#  For information on this file format, follow the CIF links at
#  http://www.iucr.org
##########################################################################

data_image0

_cell_length_a                          6.781
_cell_length_b                          15.0901
_cell_length_c                          15.0901
_cell_angle_alpha                       62.2027
_cell_angle_beta                        81.3853
_cell_angle_gamma                       98.6147
_symmetry_space_group_name_H-M          'P 1'
_symmetry_int_tables_number             1
loop_
  _symmetry_equiv_pos_as_xyz
         'x, y, z' 
loop_
  _atom_site_label
  _atom_site_occupancy
  _atom_site_fract_x
  _atom_site_fract_y
  _atom_site_fract_z
  _atom_site_thermal_displace_type
  _atom_site_B_iso_or_equiv
  _atom_site_type_symbol
  _atom_site_charge
         C1        1.0000    0.74490   0.18570   0.45900   Biso      1.000     C          0.63705   
         C2        1.0000    0.94300   0.90470   0.56170   Biso      1.000     C          0.37079   
         C3        1.0000    0.58850   0.50325   0.49675   Biso      1.000     C          -0.328051           
         C4        1.0000    0.94300   0.43830   0.09530   Biso      1.000     C          0.370799  
         C5        1.0000    0.24650   0.55725   0.44275   Biso      1.000     C          -0.027994           
         C6        1.0000    0.82160   0.50680   0.90610   Biso      1.000     C          -0.224621           
         C7        1.0000    0.68925   0.00000   0.55725   Biso      1.000     C          -0.02461  
         C8        1.0000    0.82160   0.09390   0.49320   Biso      1.000     C          -0.224594           
         C9        1.0000    0.03830   0.53360   0.90470   Biso      1.000     C          0.37154   
         C10       1.0000    0.08525   0.00000   0.50325   Biso      1.000     C          -0.329406           
         C11       1.0000    0.31480   0.49320   0.41290   Biso      1.000     C          -0.224703           
         C12       1.0000    0.74490   0.54100   0.81430   Biso      1.000     C          0.637056  
         C13       1.0000    0.72770   0.90610   0.58710   Biso      1.000     C          -0.226029           
         C14       1.0000    0.20390   0.45900   0.35530   Biso      1.000     C          0.637543  
         C15       1.0000    0.55920   0.81430   0.64470   Biso      1.000     C          0.635083  
         C16       1.0000    0.72770   0.41290   0.09390   Biso      1.000     C          -0.226052           
         C17       1.0000    0.20390   0.64470   0.54100   Biso      1.000     C          0.637551  
         C18       1.0000    0.03830   0.09530   0.46640   Biso      1.000     C          0.37153   
         C19       1.0000    0.50470   0.56170   0.53360   Biso      1.000     C          0.370885  
         C20       1.0000    0.08525   0.49675   0.00000   Biso      1.000     C          -0.329421           
         C21       1.0000    0.55920   0.35530   0.18570   Biso      1.000     C          0.635091  
         C22       1.0000    0.31480   0.58710   0.50680   Biso      1.000     C          -0.224707           
         C23       1.0000    0.50470   0.46640   0.43830   Biso      1.000     C          0.370894  
         C24       1.0000    0.68925   0.44275   0.00000   Biso      1.000     C          -0.024571           
         Co1       1.0000    0.39440   0.28290   0.42270   Biso      1.000     Co          0.974931  
         Co2       1.0000    0.81710   0.70560   0.57730   Biso      1.000     Co          0.974338  
         Co3       1.0000    0.11150   0.29440   0.28290   Biso      1.000     Co          0.97423   
         Co4       1.0000    0.11150   0.71710   0.70560   Biso      1.000     Co          0.97421   
         Co5       1.0000    0.39440   0.57730   0.71710   Biso      1.000     Co          0.974977  
         Co6       1.0000    0.81710   0.42270   0.29440   Biso      1.000     Co          0.974299  
         H1        1.0000    0.25180   0.00000   0.48360   Biso      1.000     H          0.139787  
         H2        1.0000    0.73540   0.48360   0.51640   Biso      1.000     H          0.140386  
         H3        1.0000    0.09910   0.57615   0.42385   Biso      1.000     H          0.109733  
         H4        1.0000    0.25180   0.51640   0.00000   Biso      1.000     H          0.139786  
         H5        1.0000    0.52295   0.00000   0.57615   Biso      1.000     H          0.108231  
         H6        1.0000    0.52295   0.42385   0.00000   Biso      1.000     H          0.108233  
         O1        1.0000    0.17790   0.59550   0.81900   Biso      1.000     O          -0.574047           
         O2        1.0000    0.99690   0.81900   0.58550   Biso      1.000     O          -0.574297           
         O3        1.0000    0.56000   0.49870   0.82780   Biso      1.000     O          -0.529828           
         O4        1.0000    0.26060   0.38860   0.33770   Biso      1.000     O          -0.601152           
         O5        1.0000    0.59830   0.72630   0.66230   Biso      1.000     O          -0.598224           
         O6        1.0000    0.59830   0.33770   0.27370   Biso      1.000     O          -0.598214           
         O7        1.0000    0.56000   0.17220   0.50130   Biso      1.000     O          -0.529812           
         O8        1.0000    0.38780   0.82780   0.67350   Biso      1.000     O          -0.529122           
         O9        1.0000    0.99690   0.41450   0.18100   Biso      1.000     O          -0.574272           
         O10       1.0000    0.26060   0.66230   0.61140   Biso      1.000     O          -0.601179           
         O11       1.0000    0.17790   0.18100   0.40450   Biso      1.000     O          -0.574068           
         O12       1.0000    0.38780   0.32650   0.17220   Biso      1.000     O          -0.529158           
         O13       1.0000    0.06130   0.50130   0.32650   Biso      1.000     O          -0.529312           
         O14       1.0000    0.87200   0.61140   0.72630   Biso      1.000     O          -0.600516           
         O15       1.0000    0.58240   0.40450   0.41450   Biso      1.000     O          -0.575563           
         O16       1.0000    0.06130   0.67350   0.49870   Biso      1.000     O          -0.529325           
         O17       1.0000    0.58240   0.58550   0.59550   Biso      1.000     O          -0.575564           
         O18       1.0000    0.87200   0.27370   0.38860   Biso      1.000     O          -0.60054 