
##########################################################################
#               Crystallographic Information Format file
#               Produced by PyCifRW module
#
#  This is a CIF file.  CIF has been adopted by the International
#  Union of Crystallography as the standard for data archiving and
#  transmission.
#
#  For information on this file format, follow the CIF links at
#  http://www.iucr.org
##########################################################################

data_image0

_cell_length_a                          6.7898
_cell_length_b                          15.0963
_cell_length_c                          15.0963
_cell_angle_alpha                       62.2066
_cell_angle_beta                        81.3775
_cell_angle_gamma                       98.6225
_symmetry_space_group_name_H-M          'P 1'
_symmetry_int_tables_number             1
loop_
  _symmetry_equiv_pos_as_xyz
         'x, y, z' 
loop_
  _atom_site_label
  _atom_site_occupancy
  _atom_site_fract_x
  _atom_site_fract_y
  _atom_site_fract_z
  _atom_site_thermal_displace_type
  _atom_site_B_iso_or_equiv
  _atom_site_type_symbol
  _atom_site_charge
         C1        1.0000    0.82360   0.50890   0.90610   Biso      1.000     C          -0.208713           
         C2        1.0000    0.07815   0.00000   0.50355   Biso      1.000     C          -0.308287           
         C3        1.0000    0.03630   0.09190   0.46840   Biso      1.000     C          0.384782  
         C4        1.0000    0.72970   0.90610   0.58500   Biso      1.000     C          -0.207931           
         C5        1.0000    0.94440   0.43970   0.09190   Biso      1.000     C          0.382821  
         C6        1.0000    0.58170   0.50355   0.49645   Biso      1.000     C          -0.31290300000000004          
         C7        1.0000    0.20260   0.64430   0.54150   Biso      1.000     C          0.620958  
         C8        1.0000    0.50470   0.46840   0.43970   Biso      1.000     C          0.38745300000000005           
         C9        1.0000    0.31470   0.58500   0.50890   Biso      1.000     C          -0.21118  
         C10       1.0000    0.94440   0.90810   0.56030   Biso      1.000     C          0.382861  
         C11       1.0000    0.72970   0.41500   0.09390   Biso      1.000     C          -0.20794  
         C12       1.0000    0.68075   0.00000   0.55875   Biso      1.000     C          -0.052909000000000005         
         C13       1.0000    0.74410   0.54150   0.81420   Biso      1.000     C          0.6203649999999999  
         C14       1.0000    0.68075   0.44125   0.00000   Biso      1.000     C          -0.052905999999999995         
         C15       1.0000    0.55830   0.81420   0.64430   Biso      1.000     C          0.6214689999999999  
         C16       1.0000    0.20260   0.45850   0.35570   Biso      1.000     C          0.620962  
         C17       1.0000    0.03630   0.53160   0.90810   Biso      1.000     C          0.384756  
         C18       1.0000    0.55830   0.35570   0.18580   Biso      1.000     C          0.621486  
         C19       1.0000    0.31470   0.49110   0.41500   Biso      1.000     C          -0.21118800000000001          
         C20       1.0000    0.23950   0.55875   0.44125   Biso      1.000     C          -0.05284199999999999          
         C21       1.0000    0.74410   0.18580   0.45850   Biso      1.000     C          0.620362  
         C22       1.0000    0.07815   0.49645   0.00000   Biso      1.000     C          -0.308224           
         C23       1.0000    0.82360   0.09390   0.49110   Biso      1.000     C          -0.20871599999999998          
         C24       1.0000    0.50470   0.56030   0.53160   Biso      1.000     C          0.38745300000000005           
         Co1       1.0000    0.40030   0.58330   0.71740   Biso      1.000     Co          0.9830479999999999  
         Co2       1.0000    0.11770   0.71740   0.69930   Biso      1.000     Co          0.983683  
         Co3       1.0000    0.81700   0.69930   0.58330   Biso      1.000     Co          0.984757  
         Co4       1.0000    0.40030   0.28260   0.41670   Biso      1.000     Co          0.9831040000000001  
         Co5       1.0000    0.11770   0.30070   0.28260   Biso      1.000     Co          0.983742  
         Co6       1.0000    0.81700   0.41670   0.30070   Biso      1.000     Co          0.984748  
         H1        1.0000    0.11160   0.57690   0.42310   Biso      1.000     H          0.125776  
         H2        1.0000    0.53470   0.00000   0.57690   Biso      1.000     H          0.12395899999999999           
         H3        1.0000    0.53470   0.42310   0.00000   Biso      1.000     H          0.123966  
         H4        1.0000    0.72860   0.48390   0.51610   Biso      1.000     H          0.140916  
         H5        1.0000    0.24470   0.51610   0.00000   Biso      1.000     H          0.1394    
         H6        1.0000    0.24470   0.00000   0.48390   Biso      1.000     H          0.139404  
         O1        1.0000    0.38060   0.82380   0.67520   Biso      1.000     O          -0.530096           
         O2        1.0000    0.99480   0.81840   0.58490   Biso      1.000     O          -0.598853           
         O3        1.0000    0.99480   0.41510   0.18160   Biso      1.000     O          -0.598829           
         O4        1.0000    0.25670   0.38410   0.34130   Biso      1.000     O          -0.6033890000000001           
         O5        1.0000    0.57970   0.40330   0.41510   Biso      1.000     O          -0.59901  
         O6        1.0000    0.59800   0.72540   0.65870   Biso      1.000     O          -0.6034649999999999           
         O7        1.0000    0.17640   0.59670   0.81840   Biso      1.000     O          -0.597835           
         O8        1.0000    0.87260   0.27460   0.38410   Biso      1.000     O          -0.603699           
         O9        1.0000    0.55680   0.17620   0.49900   Biso      1.000     O          -0.5288970000000001           
         O10       1.0000    0.38060   0.32480   0.17620   Biso      1.000     O          -0.5301170000000001           
         O11       1.0000    0.05580   0.67520   0.50100   Biso      1.000     O          -0.528967           
         O12       1.0000    0.25670   0.65870   0.61590   Biso      1.000     O          -0.60341  
         O13       1.0000    0.17640   0.18160   0.40330   Biso      1.000     O          -0.597855           
         O14       1.0000    0.57970   0.58490   0.59670   Biso      1.000     O          -0.599006           
         O15       1.0000    0.59800   0.34130   0.27460   Biso      1.000     O          -0.603489           
         O16       1.0000    0.55680   0.50100   0.82380   Biso      1.000     O          -0.528934           
         O17       1.0000    0.05580   0.49900   0.32480   Biso      1.000     O          -0.528961           
         O18       1.0000    0.87260   0.61590   0.72540   Biso      1.000     O          -0.603681 