
##########################################################################
#               Crystallographic Information Format file
#               Produced by PyCifRW module
#
#  This is a CIF file.  CIF has been adopted by the International
#  Union of Crystallography as the standard for data archiving and
#  transmission.
#
#  For information on this file format, follow the CIF links at
#  http://www.iucr.org
##########################################################################

data_image0

_cell_length_a                          6.803
_cell_length_b                          15.1144
_cell_length_c                          15.1144
_cell_angle_alpha                       62.2098
_cell_angle_beta                        81.3712
_cell_angle_gamma                       98.6288
_symmetry_space_group_name_H-M          'P 1'
_symmetry_int_tables_number             1
loop_
  _symmetry_equiv_pos_as_xyz
         'x, y, z' 
loop_
  _atom_site_label
  _atom_site_occupancy
  _atom_site_fract_x
  _atom_site_fract_y
  _atom_site_fract_z
  _atom_site_thermal_displace_type
  _atom_site_B_iso_or_equiv
  _atom_site_type_symbol
  _atom_site_charge
         C1        1.0000    0.74740   0.18610   0.45580   Biso      1.000     C          0.623968  
         C2        1.0000    0.72810   0.90540   0.58520   Biso      1.000     C          -0.212077           
         C3        1.0000    0.94570   0.43790   0.09430   Biso      1.000     C          0.36017   
         C4        1.0000    0.74740   0.54420   0.81390   Biso      1.000     C          0.623965  
         C5        1.0000    0.56130   0.81390   0.64190   Biso      1.000     C          0.623467  
         C6        1.0000    0.04000   0.53220   0.90570   Biso      1.000     C          0.360054  
         C7        1.0000    0.20320   0.45580   0.35810   Biso      1.000     C          0.623659  
         C8        1.0000    0.82270   0.50940   0.90540   Biso      1.000     C          -0.211678           
         C9        1.0000    0.04000   0.09430   0.46780   Biso      1.000     C          0.36005   
         C10       1.0000    0.94570   0.90570   0.56210   Biso      1.000     C          0.360164  
         C11       1.0000    0.72810   0.41480   0.09460   Biso      1.000     C          -0.212081           
         C12       1.0000    0.56130   0.35810   0.18610   Biso      1.000     C          0.623472  
         C13       1.0000    0.31330   0.49060   0.41480   Biso      1.000     C          -0.211913           
         C14       1.0000    0.50780   0.46780   0.43790   Biso      1.000     C          0.360229  
         C15       1.0000    0.31330   0.58520   0.50940   Biso      1.000     C          -0.211914           
         C16       1.0000    0.22850   0.55695   0.44305   Biso      1.000     C          -0.05628  
         C17       1.0000    0.58700   0.49920   0.50080   Biso      1.000     C          -0.313748           
         C18       1.0000    0.50780   0.56210   0.53220   Biso      1.000     C          0.360231  
         C19       1.0000    0.08780   0.50080   0.00000   Biso      1.000     C          -0.314232           
         C20       1.0000    0.67155   0.00000   0.55695   Biso      1.000     C          -0.055411           
         C21       1.0000    0.82270   0.09460   0.49060   Biso      1.000     C          -0.211674           
         C22       1.0000    0.20320   0.64190   0.54420   Biso      1.000     C          0.623667  
         C23       1.0000    0.67155   0.44305   0.00000   Biso      1.000     C          -0.055406           
         C24       1.0000    0.08780   0.00000   0.49920   Biso      1.000     C          -0.314221           
         Co1       1.0000    0.10110   0.71690   0.70060   Biso      1.000     Co          0.986272  
         Co2       1.0000    0.10110   0.29940   0.28310   Biso      1.000     Co          0.986284  
         Co3       1.0000    0.80170   0.70060   0.58250   Biso      1.000     Co          0.986913  
         Co4       1.0000    0.38420   0.58250   0.71690   Biso      1.000     Co          0.987019  
         Co5       1.0000    0.80170   0.41750   0.29940   Biso      1.000     Co          0.986906  
         Co6       1.0000    0.38420   0.28310   0.41750   Biso      1.000     Co          0.987017  
         H1        1.0000    0.23975   0.51625   0.00000   Biso      1.000     H          0.161145  
         H2        1.0000    0.72350   0.48375   0.51625   Biso      1.000     H          0.160897  
         H3        1.0000    0.10700   0.56850   0.43150   Biso      1.000     H          0.133575  
         H4        1.0000    0.23975   0.00000   0.48375   Biso      1.000     H          0.161148  
         H5        1.0000    0.53850   0.43150   0.00000   Biso      1.000     H          0.132948  
         H6        1.0000    0.53850   0.00000   0.56850   Biso      1.000     H          0.132947  
         O1        1.0000    0.57940   0.58150   0.60110   Biso      1.000     O          -0.586078           
         O2        1.0000    0.25570   0.65950   0.61550   Biso      1.000     O          -0.595688           
         O3        1.0000    0.99790   0.41850   0.18260   Biso      1.000     O          -0.585433           
         O4        1.0000    0.57940   0.39890   0.41850   Biso      1.000     O          -0.586075           
         O5        1.0000    0.59620   0.72500   0.65950   Biso      1.000     O          -0.595657           
         O6        1.0000    0.87120   0.27500   0.38450   Biso      1.000     O          -0.595985           
         O7        1.0000    0.87120   0.61550   0.72500   Biso      1.000     O          -0.595956           
         O8        1.0000    0.38020   0.32810   0.17950   Biso      1.000     O          -0.539305           
         O9        1.0000    0.99790   0.81740   0.58150   Biso      1.000     O          -0.585447           
         O10       1.0000    0.05210   0.49240   0.32810   Biso      1.000     O          -0.539314           
         O11       1.0000    0.18050   0.60110   0.81740   Biso      1.000     O          -0.585315           
         O12       1.0000    0.55970   0.50760   0.82050   Biso      1.000     O          -0.539997           
         O13       1.0000    0.25570   0.38450   0.34050   Biso      1.000     O          -0.595678           
         O14       1.0000    0.05210   0.67190   0.50760   Biso      1.000     O          -0.539331           
         O15       1.0000    0.55970   0.17950   0.49240   Biso      1.000     O          -0.540003           
         O16       1.0000    0.38020   0.82050   0.67190   Biso      1.000     O          -0.539296           
         O17       1.0000    0.59620   0.34050   0.27500   Biso      1.000     O          -0.59564  
         O18       1.0000    0.18050   0.18260   0.39890   Biso      1.000     O          -0.585332 