
##########################################################################
#               Crystallographic Information Format file
#               Produced by PyCifRW module
#
#  This is a CIF file.  CIF has been adopted by the International
#  Union of Crystallography as the standard for data archiving and
#  transmission.
#
#  For information on this file format, follow the CIF links at
#  http://www.iucr.org
##########################################################################

data_image0

_cell_length_a                          6.788
_cell_length_b                          15.0961
_cell_length_c                          15.0961
_cell_angle_alpha                       62.2055
_cell_angle_beta                        81.3797
_cell_angle_gamma                       98.6203
_symmetry_space_group_name_H-M          'P 1'
_symmetry_int_tables_number             1
loop_
  _symmetry_equiv_pos_as_xyz
         'x, y, z' 
loop_
  _atom_site_label
  _atom_site_occupancy
  _atom_site_fract_x
  _atom_site_fract_y
  _atom_site_fract_z
  _atom_site_thermal_displace_type
  _atom_site_B_iso_or_equiv
  _atom_site_type_symbol
  _atom_site_charge
         C1        1.0000    0.50600   0.46810   0.43820   Biso      1.000     C          0.372056  
         C2        1.0000    0.08010   0.00000   0.50040   Biso      1.000     C          -0.312821           
         C3        1.0000    0.67765   0.00000   0.55875   Biso      1.000     C          -0.042759           
         C4        1.0000    0.82790   0.50960   0.90500   Biso      1.000     C          -0.20541399999999999          
         C5        1.0000    0.03790   0.09370   0.46810   Biso      1.000     C          0.371395  
         C6        1.0000    0.56450   0.35810   0.18490   Biso      1.000     C          0.6021890000000001  
         C7        1.0000    0.82790   0.09500   0.49040   Biso      1.000     C          -0.20541399999999999          
         C8        1.0000    0.31830   0.49040   0.41460   Biso      1.000     C          -0.20537399999999997          
         C9        1.0000    0.56450   0.81510   0.64190   Biso      1.000     C          0.602178  
         C10       1.0000    0.23640   0.55875   0.44125   Biso      1.000     C          -0.046426           
         C11       1.0000    0.73290   0.90500   0.58540   Biso      1.000     C          -0.20653400000000002          
         C12       1.0000    0.94420   0.90630   0.56180   Biso      1.000     C          0.372296  
         C13       1.0000    0.73290   0.41460   0.09500   Biso      1.000     C          -0.206539           
         C14       1.0000    0.67765   0.44125   0.00000   Biso      1.000     C          -0.042751           
         C15       1.0000    0.03790   0.53190   0.90630   Biso      1.000     C          0.371394  
         C16       1.0000    0.31830   0.58540   0.50960   Biso      1.000     C          -0.20537199999999997          
         C17       1.0000    0.20640   0.45700   0.35810   Biso      1.000     C          0.6066    
         C18       1.0000    0.94420   0.43820   0.09370   Biso      1.000     C          0.372282  
         C19       1.0000    0.20640   0.64190   0.54300   Biso      1.000     C          0.6066    
         C20       1.0000    0.58050   0.50040   0.49960   Biso      1.000     C          -0.310461           
         C21       1.0000    0.50600   0.56180   0.53190   Biso      1.000     C          0.372067  
         C22       1.0000    0.74940   0.18490   0.45700   Biso      1.000     C          0.605014  
         C23       1.0000    0.08010   0.49960   0.00000   Biso      1.000     C          -0.31280399999999997          
         C24       1.0000    0.74940   0.54300   0.81510   Biso      1.000     C          0.60501   
         Co1       1.0000    0.10190   0.71650   0.70080   Biso      1.000     Co          0.986931  
         Co2       1.0000    0.80270   0.41730   0.29920   Biso      1.000     Co          0.986992  
         Co3       1.0000    0.10190   0.29920   0.28350   Biso      1.000     Co          0.986964  
         Co4       1.0000    0.38540   0.58270   0.71650   Biso      1.000     Co          0.9879760000000001  
         Co5       1.0000    0.80270   0.70080   0.58270   Biso      1.000     Co          0.9869629999999999  
         Co6       1.0000    0.38540   0.28350   0.41730   Biso      1.000     Co          0.9880049999999999  
         H1        1.0000    0.10690   0.57285   0.42715   Biso      1.000     H          0.133614  
         H2        1.0000    0.22915   0.00000   0.48855   Biso      1.000     H          0.157253  
         H3        1.0000    0.22915   0.51145   0.00000   Biso      1.000     H          0.157251  
         H4        1.0000    0.71770   0.48855   0.51145   Biso      1.000     H          0.15504300000000001           
         H5        1.0000    0.53405   0.42715   0.00000   Biso      1.000     H          0.132223  
         H6        1.0000    0.53405   0.00000   0.57285   Biso      1.000     H          0.132221  
         O1        1.0000    0.00170   0.81770   0.58270   Biso      1.000     O          -0.590176           
         O2        1.0000    0.58440   0.58270   0.59960   Biso      1.000     O          -0.592036           
         O3        1.0000    0.05180   0.67410   0.50500   Biso      1.000     O          -0.5425409999999999           
         O4        1.0000    0.18400   0.59960   0.81770   Biso      1.000     O          -0.590882           
         O5        1.0000    0.18400   0.18230   0.40040   Biso      1.000     O          -0.5908939999999999           
         O6        1.0000    0.87790   0.61470   0.72390   Biso      1.000     O          -0.5925600000000001           
         O7        1.0000    0.55680   0.17910   0.49500   Biso      1.000     O          -0.541763           
         O8        1.0000    0.05180   0.49500   0.32590   Biso      1.000     O          -0.542521           
         O9        1.0000    0.37770   0.32590   0.17910   Biso      1.000     O          -0.5409010000000001           
         O10       1.0000    0.26320   0.66140   0.61470   Biso      1.000     O          -0.5925229999999999           
         O11       1.0000    0.60180   0.72390   0.66140   Biso      1.000     O          -0.590541           
         O12       1.0000    0.58440   0.40040   0.41730   Biso      1.000     O          -0.5920449999999999           
         O13       1.0000    0.26320   0.38530   0.33860   Biso      1.000     O          -0.592517           
         O14       1.0000    0.00170   0.41730   0.18230   Biso      1.000     O          -0.590162           
         O15       1.0000    0.60180   0.33860   0.27610   Biso      1.000     O          -0.5905279999999999           
         O16       1.0000    0.37770   0.82090   0.67410   Biso      1.000     O          -0.540894           
         O17       1.0000    0.87790   0.27610   0.38530   Biso      1.000     O          -0.59259  
         O18       1.0000    0.55680   0.50500   0.82090   Biso      1.000     O          -0.54177 