
##########################################################################
#               Crystallographic Information Format file
#               Produced by PyCifRW module
#
#  This is a CIF file.  CIF has been adopted by the International
#  Union of Crystallography as the standard for data archiving and
#  transmission.
#
#  For information on this file format, follow the CIF links at
#  http://www.iucr.org
##########################################################################

data_image0

_cell_length_a                          6.7677
_cell_length_b                          15.1074
_cell_length_c                          15.1074
_cell_angle_alpha                       62.1892
_cell_angle_beta                        81.4122
_cell_angle_gamma                       98.5878
_symmetry_space_group_name_H-M          'P 1'
_symmetry_int_tables_number             1
loop_
  _symmetry_equiv_pos_as_xyz
         'x, y, z' 
loop_
  _atom_site_label
  _atom_site_occupancy
  _atom_site_fract_x
  _atom_site_fract_y
  _atom_site_fract_z
  _atom_site_thermal_displace_type
  _atom_site_B_iso_or_equiv
  _atom_site_type_symbol
  _atom_site_charge
         C1        1.0000    0.94240   0.43710   0.09890   Biso      1.000     C          0.372251  
         C2        1.0000    0.94240   0.90110   0.56290   Biso      1.000     C          0.372247  
         C3        1.0000    0.24690   0.55785   0.44215   Biso      1.000     C          -0.035036           
         C4        1.0000    0.82610   0.09310   0.49480   Biso      1.000     C          -0.22531  
         C5        1.0000    0.82610   0.50520   0.90690   Biso      1.000     C          -0.225319           
         C6        1.0000    0.08865   0.49795   0.00000   Biso      1.000     C          -0.348074           
         C7        1.0000    0.32090   0.58790   0.50520   Biso      1.000     C          -0.224309           
         C8        1.0000    0.56020   0.81460   0.64440   Biso      1.000     C          0.636673  
         C9        1.0000    0.73300   0.90690   0.58790   Biso      1.000     C          -0.225904           
         C10       1.0000    0.20460   0.64440   0.54100   Biso      1.000     C          0.636201  
         C11       1.0000    0.74560   0.54100   0.81460   Biso      1.000     C          0.639362  
         C12       1.0000    0.04130   0.09890   0.46400   Biso      1.000     C          0.370759  
         C13       1.0000    0.74560   0.18540   0.45900   Biso      1.000     C          0.639363  
         C14       1.0000    0.50530   0.46400   0.43710   Biso      1.000     C          0.371861  
         C15       1.0000    0.20460   0.45900   0.35560   Biso      1.000     C          0.636187  
         C16       1.0000    0.59070   0.50205   0.49795   Biso      1.000     C          -0.347595           
         C17       1.0000    0.04130   0.53600   0.90110   Biso      1.000     C          0.370767  
         C18       1.0000    0.08865   0.00000   0.50205   Biso      1.000     C          -0.348058           
         C19       1.0000    0.50530   0.56290   0.53600   Biso      1.000     C          0.371861  
         C20       1.0000    0.73300   0.41210   0.09310   Biso      1.000     C          -0.225911           
         C21       1.0000    0.68905   0.00000   0.55785   Biso      1.000     C          -0.032115           
         C22       1.0000    0.32090   0.49480   0.41210   Biso      1.000     C          -0.224311           
         C23       1.0000    0.56020   0.35560   0.18540   Biso      1.000     C          0.636678  
         C24       1.0000    0.68905   0.44215   0.00000   Biso      1.000     C          -0.032102           
         Co1       1.0000    0.11580   0.29620   0.28080   Biso      1.000     Co          0.981442  
         Co2       1.0000    0.39660   0.57700   0.71920   Biso      1.000     Co          0.981056  
         Co3       1.0000    0.11580   0.71920   0.70380   Biso      1.000     Co          0.981471  
         Co4       1.0000    0.81960   0.42300   0.29620   Biso      1.000     Co          0.98053   
         Co5       1.0000    0.81960   0.70380   0.57700   Biso      1.000     Co          0.980545  
         Co6       1.0000    0.39660   0.28080   0.42300   Biso      1.000     Co          0.981077  
         H1        1.0000    0.10070   0.57405   0.42595   Biso      1.000     H          0.117544  
         H2        1.0000    0.52665   0.42595   0.00000   Biso      1.000     H          0.115707  
         H3        1.0000    0.73240   0.48060   0.51940   Biso      1.000     H          0.138152  
         H4        1.0000    0.52665   0.00000   0.57405   Biso      1.000     H          0.115704  
         H5        1.0000    0.25180   0.51940   0.00000   Biso      1.000     H          0.137379  
         H6        1.0000    0.25180   0.00000   0.48060   Biso      1.000     H          0.137378  
         O1        1.0000    0.58210   0.40380   0.41350   Biso      1.000     O          -0.565498           
         O2        1.0000    0.05620   0.49900   0.32840   Biso      1.000     O          -0.539659           
         O3        1.0000    0.38460   0.32840   0.17260   Biso      1.000     O          -0.540542           
         O4        1.0000    0.58210   0.58650   0.59620   Biso      1.000     O          -0.565493           
         O5        1.0000    0.38460   0.82740   0.67160   Biso      1.000     O          -0.54054  
         O6        1.0000    0.55720   0.50100   0.82740   Biso      1.000     O          -0.541329           
         O7        1.0000    0.86550   0.61310   0.72830   Biso      1.000     O          -0.597089           
         O8        1.0000    0.55720   0.17260   0.49900   Biso      1.000     O          -0.541325           
         O9        1.0000    0.99560   0.81730   0.58650   Biso      1.000     O          -0.564788           
         O10       1.0000    0.05620   0.67160   0.50100   Biso      1.000     O          -0.539683           
         O11       1.0000    0.25240   0.38690   0.34140   Biso      1.000     O          -0.596003           
         O12       1.0000    0.99560   0.41350   0.18270   Biso      1.000     O          -0.564735           
         O13       1.0000    0.86550   0.27170   0.38690   Biso      1.000     O          -0.597114           
         O14       1.0000    0.17830   0.18270   0.40380   Biso      1.000     O          -0.563344           
         O15       1.0000    0.59380   0.72830   0.65860   Biso      1.000     O          -0.595839           
         O16       1.0000    0.17830   0.59620   0.81730   Biso      1.000     O          -0.563317           
         O17       1.0000    0.25240   0.65860   0.61310   Biso      1.000     O          -0.596021           
         O18       1.0000    0.59380   0.34140   0.27170   Biso      1.000     O          -0.59583 