
##########################################################################
#               Crystallographic Information Format file
#               Produced by PyCifRW module
#
#  This is a CIF file.  CIF has been adopted by the International
#  Union of Crystallography as the standard for data archiving and
#  transmission.
#
#  For information on this file format, follow the CIF links at
#  http://www.iucr.org
##########################################################################

data_image0

_cell_length_a                          6.7904
_cell_length_b                          15.1181
_cell_length_c                          15.1181
_cell_angle_alpha                       62.2007
_cell_angle_beta                        81.3893
_cell_angle_gamma                       98.6107
_symmetry_space_group_name_H-M          'P 1'
_symmetry_int_tables_number             1
loop_
  _symmetry_equiv_pos_as_xyz
         'x, y, z' 
loop_
  _atom_site_label
  _atom_site_occupancy
  _atom_site_fract_x
  _atom_site_fract_y
  _atom_site_fract_z
  _atom_site_thermal_displace_type
  _atom_site_B_iso_or_equiv
  _atom_site_type_symbol
  _atom_site_charge
         C1        1.0000    0.74530   0.18510   0.46020   Biso      1.000     C          0.632188  
         C2        1.0000    0.20550   0.46020   0.35470   Biso      1.000     C          0.634208  
         C3        1.0000    0.20550   0.64530   0.53980   Biso      1.000     C          0.634206  
         C4        1.0000    0.56020   0.81490   0.64530   Biso      1.000     C          0.631841  
         C5        1.0000    0.68630   0.00000   0.56010   Biso      1.000     C          -0.048054           
         C6        1.0000    0.09560   0.00000   0.49620   Biso      1.000     C          -0.313692           
         C7        1.0000    0.74530   0.53980   0.81490   Biso      1.000     C          0.632161  
         C8        1.0000    0.68630   0.43990   0.00000   Biso      1.000     C          -0.048052           
         C9        1.0000    0.83030   0.09350   0.49460   Biso      1.000     C          -0.21226199999999998          
         C10       1.0000    0.73680   0.41190   0.09350   Biso      1.000     C          -0.211995           
         C11       1.0000    0.83030   0.50540   0.90650   Biso      1.000     C          -0.212267           
         C12       1.0000    0.09560   0.50380   0.00000   Biso      1.000     C          -0.313707           
         C13       1.0000    0.73680   0.90650   0.58810   Biso      1.000     C          -0.21199400000000002          
         C14       1.0000    0.94400   0.90430   0.56130   Biso      1.000     C          0.36488699999999996           
         C15       1.0000    0.24640   0.56010   0.43990   Biso      1.000     C          -0.046783           
         C16       1.0000    0.03970   0.53440   0.90430   Biso      1.000     C          0.365694  
         C17       1.0000    0.56020   0.35470   0.18510   Biso      1.000     C          0.6318520000000001  
         C18       1.0000    0.03970   0.09570   0.46560   Biso      1.000     C          0.365694  
         C19       1.0000    0.50530   0.56130   0.53440   Biso      1.000     C          0.36385700000000004           
         C20       1.0000    0.32490   0.49460   0.41190   Biso      1.000     C          -0.21336599999999997          
         C21       1.0000    0.59180   0.49620   0.50380   Biso      1.000     C          -0.312176           
         C22       1.0000    0.32490   0.58810   0.50540   Biso      1.000     C          -0.213365           
         C23       1.0000    0.50530   0.46560   0.43870   Biso      1.000     C          0.36385500000000004           
         C24       1.0000    0.94400   0.43870   0.09570   Biso      1.000     C          0.364886  
         Co1       1.0000    0.11537   0.71983   0.70272   Biso      1.000     Co          0.987409  
         Co2       1.0000    0.39554   0.57745   0.71983   Biso      1.000     Co          0.9869690000000001  
         Co3       1.0000    0.11537   0.29728   0.28017   Biso      1.000     Co          0.9874040000000001  
         Co4       1.0000    0.39554   0.28017   0.42255   Biso      1.000     Co          0.987038  
         Co5       1.0000    0.81809   0.42255   0.29728   Biso      1.000     Co          0.9866229999999999  
         Co6       1.0000    0.81809   0.70272   0.57745   Biso      1.000     Co          0.9866440000000001  
         H1        1.0000    0.26550   0.53650   0.00000   Biso      1.000     H          0.143823  
         H2        1.0000    0.26550   0.00000   0.46350   Biso      1.000     H          0.14382   
         H3        1.0000    0.52300   0.00000   0.56100   Biso      1.000     H          0.11690299999999999           
         H4        1.0000    0.52300   0.43900   0.00000   Biso      1.000     H          0.11690199999999999           
         H5        1.0000    0.08400   0.56100   0.43900   Biso      1.000     H          0.117039  
         H6        1.0000    0.72900   0.46350   0.53650   Biso      1.000     H          0.143553  
         O1        1.0000    0.55290   0.50220   0.82650   Biso      1.000     O          -0.545759           
         O2        1.0000    0.37940   0.32870   0.17350   Biso      1.000     O          -0.545756           
         O3        1.0000    0.86340   0.27120   0.38700   Biso      1.000     O          -0.591119           
         O4        1.0000    0.55290   0.17350   0.49780   Biso      1.000     O          -0.545828           
         O5        1.0000    0.99710   0.41450   0.18220   Biso      1.000     O          -0.584551           
         O6        1.0000    0.59220   0.72880   0.65820   Biso      1.000     O          -0.590791           
         O7        1.0000    0.17930   0.59670   0.81780   Biso      1.000     O          -0.585232           
         O8        1.0000    0.37940   0.82650   0.67130   Biso      1.000     O          -0.545725           
         O9        1.0000    0.58260   0.58550   0.59670   Biso      1.000     O          -0.584254           
         O10       1.0000    0.25040   0.65820   0.61300   Biso      1.000     O          -0.591758           
         O11       1.0000    0.58260   0.40330   0.41450   Biso      1.000     O          -0.584275           
         O12       1.0000    0.05070   0.67130   0.50220   Biso      1.000     O          -0.546585           
         O13       1.0000    0.25040   0.38700   0.34180   Biso      1.000     O          -0.591763           
         O14       1.0000    0.99710   0.81780   0.58550   Biso      1.000     O          -0.584598           
         O15       1.0000    0.86340   0.61300   0.72880   Biso      1.000     O          -0.591096           
         O16       1.0000    0.17930   0.18220   0.40330   Biso      1.000     O          -0.5852689999999999           
         O17       1.0000    0.05070   0.49780   0.32870   Biso      1.000     O          -0.546606           
         O18       1.0000    0.59220   0.34180   0.27120   Biso      1.000     O          -0.5907789999999999 