
##########################################################################
#               Crystallographic Information Format file
#               Produced by PyCifRW module
#
#  This is a CIF file.  CIF has been adopted by the International
#  Union of Crystallography as the standard for data archiving and
#  transmission.
#
#  For information on this file format, follow the CIF links at
#  http://www.iucr.org
##########################################################################

data_image0

_cell_length_a                          6.8116
_cell_length_b                          15.1204
_cell_length_c                          15.1204
_cell_angle_alpha                       62.2136
_cell_angle_beta                        81.3636
_cell_angle_gamma                       98.6364
_symmetry_space_group_name_H-M          'P 1'
_symmetry_int_tables_number             1
loop_
  _symmetry_equiv_pos_as_xyz
         'x, y, z' 
loop_
  _atom_site_label
  _atom_site_occupancy
  _atom_site_fract_x
  _atom_site_fract_y
  _atom_site_fract_z
  _atom_site_thermal_displace_type
  _atom_site_B_iso_or_equiv
  _atom_site_type_symbol
  _atom_site_charge
         C1        1.0000    0.20030   0.63870   0.54820   Biso      1.000     C          0.647465  
         C2        1.0000    0.72790   0.41880   0.09440   Biso      1.000     C          -0.226306           
         C3        1.0000    0.56160   0.81310   0.63870   Biso      1.000     C          0.644246  
         C4        1.0000    0.24000   0.55650   0.44350   Biso      1.000     C          -0.039986           
         C5        1.0000    0.72790   0.90560   0.58120   Biso      1.000     C          -0.22630799999999998          
         C6        1.0000    0.74850   0.18690   0.45180   Biso      1.000     C          0.643962  
         C7        1.0000    0.58090   0.49935   0.50065   Biso      1.000     C          -0.313843           
         C8        1.0000    0.94610   0.90610   0.55800   Biso      1.000     C          0.378083  
         C9        1.0000    0.30910   0.58120   0.51320   Biso      1.000     C          -0.229093           
         C10       1.0000    0.68350   0.00000   0.55650   Biso      1.000     C          -0.040612999999999996         
         C11       1.0000    0.74850   0.54820   0.81310   Biso      1.000     C          0.643966  
         C12       1.0000    0.04000   0.53590   0.90610   Biso      1.000     C          0.37863600000000003           
         C13       1.0000    0.04000   0.09390   0.46410   Biso      1.000     C          0.378635  
         C14       1.0000    0.08155   0.50065   0.00000   Biso      1.000     C          -0.314604           
         C15       1.0000    0.50410   0.46410   0.44200   Biso      1.000     C          0.37819200000000003           
         C16       1.0000    0.30910   0.48680   0.41880   Biso      1.000     C          -0.22909200000000002          
         C17       1.0000    0.20030   0.45180   0.36130   Biso      1.000     C          0.647457  
         C18       1.0000    0.94610   0.44200   0.09390   Biso      1.000     C          0.378094  
         C19       1.0000    0.08155   0.00000   0.49935   Biso      1.000     C          -0.314591           
         C20       1.0000    0.82230   0.09440   0.48680   Biso      1.000     C          -0.22740900000000003          
         C21       1.0000    0.82230   0.51320   0.90560   Biso      1.000     C          -0.227413           
         C22       1.0000    0.50410   0.55800   0.53590   Biso      1.000     C          0.378189  
         C23       1.0000    0.56160   0.36130   0.18690   Biso      1.000     C          0.644243  
         C24       1.0000    0.68350   0.44350   0.00000   Biso      1.000     C          -0.040609           
         Co1       1.0000    0.80680   0.69800   0.58560   Biso      1.000     Co          0.9821770000000001  
         Co2       1.0000    0.39240   0.58560   0.71640   Biso      1.000     Co          0.9817319999999999  
         Co3       1.0000    0.10880   0.30200   0.28360   Biso      1.000     Co          0.981303  
         Co4       1.0000    0.80680   0.41440   0.30200   Biso      1.000     Co          0.982123  
         Co5       1.0000    0.10880   0.71640   0.69800   Biso      1.000     Co          0.9813129999999999  
         Co6       1.0000    0.39240   0.28360   0.41440   Biso      1.000     Co          0.981727  
         H1        1.0000    0.11390   0.57735   0.42265   Biso      1.000     H          0.12158800000000002           
         H2        1.0000    0.73890   0.48285   0.51715   Biso      1.000     H          0.12984500000000002           
         H3        1.0000    0.25605   0.00000   0.48285   Biso      1.000     H          0.129884  
         H4        1.0000    0.53655   0.00000   0.57735   Biso      1.000     H          0.12021199999999999           
         H5        1.0000    0.53655   0.42265   0.00000   Biso      1.000     H          0.12021300000000001           
         H6        1.0000    0.25605   0.51715   0.00000   Biso      1.000     H          0.129884  
         O1        1.0000    0.05280   0.66810   0.51100   Biso      1.000     O          -0.5492560000000001           
         O2        1.0000    0.59750   0.72630   0.65690   Biso      1.000     O          -0.596865           
         O3        1.0000    0.38470   0.33190   0.17910   Biso      1.000     O          -0.547556           
         O4        1.0000    0.17610   0.60200   0.81950   Biso      1.000     O          -0.580653           
         O5        1.0000    0.56380   0.17910   0.48900   Biso      1.000     O          -0.54742  
         O6        1.0000    0.57410   0.57850   0.60200   Biso      1.000     O          -0.5807439999999999           
         O7        1.0000    0.59750   0.34310   0.27370   Biso      1.000     O          -0.596861           
         O8        1.0000    0.25440   0.65690   0.61680   Biso      1.000     O          -0.597458           
         O9        1.0000    0.57410   0.39800   0.42150   Biso      1.000     O          -0.580741           
         O10       1.0000    0.99560   0.81950   0.57850   Biso      1.000     O          -0.580605           
         O11       1.0000    0.05280   0.48900   0.33190   Biso      1.000     O          -0.549247           
         O12       1.0000    0.87120   0.61680   0.72630   Biso      1.000     O          -0.596114           
         O13       1.0000    0.17610   0.18050   0.39800   Biso      1.000     O          -0.580662           
         O14       1.0000    0.25440   0.38320   0.34310   Biso      1.000     O          -0.597436           
         O15       1.0000    0.56380   0.51100   0.82090   Biso      1.000     O          -0.547421           
         O16       1.0000    0.99560   0.42150   0.18050   Biso      1.000     O          -0.580593           
         O17       1.0000    0.38470   0.82090   0.66810   Biso      1.000     O          -0.547539           
         O18       1.0000    0.87120   0.27370   0.38320   Biso      1.000     O          -0.596128 