
##########################################################################
#               Crystallographic Information Format file
#               Produced by PyCifRW module
#
#  This is a CIF file.  CIF has been adopted by the International
#  Union of Crystallography as the standard for data archiving and
#  transmission.
#
#  For information on this file format, follow the CIF links at
#  http://www.iucr.org
##########################################################################

data_image0

_cell_length_a                          6.8105
_cell_length_b                          15.1252
_cell_length_c                          15.1252
_cell_angle_alpha                       62.2115
_cell_angle_beta                        81.3678
_cell_angle_gamma                       98.6322
_symmetry_space_group_name_H-M          'P 1'
_symmetry_int_tables_number             1
loop_
  _symmetry_equiv_pos_as_xyz
         'x, y, z' 
loop_
  _atom_site_label
  _atom_site_occupancy
  _atom_site_fract_x
  _atom_site_fract_y
  _atom_site_fract_z
  _atom_site_thermal_displace_type
  _atom_site_B_iso_or_equiv
  _atom_site_type_symbol
  _atom_site_charge
         C1        1.0000    0.56400   0.81410   0.63940   Biso      1.000     C          0.631714  
         C2        1.0000    0.04350   0.09380   0.46640   Biso      1.000     C          0.362789  
         C3        1.0000    0.67785   0.00000   0.55575   Biso      1.000     C          -0.057688           
         C4        1.0000    0.20340   0.45350   0.36060   Biso      1.000     C          0.630853  
         C5        1.0000    0.94970   0.43980   0.09380   Biso      1.000     C          0.363039  
         C6        1.0000    0.82690   0.51080   0.90590   Biso      1.000     C          -0.213538           
         C7        1.0000    0.23360   0.55575   0.44425   Biso      1.000     C          -0.056496           
         C8        1.0000    0.50990   0.56020   0.53360   Biso      1.000     C          0.36185   
         C9        1.0000    0.31610   0.58330   0.51080   Biso      1.000     C          -0.212881           
         C10       1.0000    0.94970   0.90620   0.56020   Biso      1.000     C          0.363033  
         C11       1.0000    0.67785   0.44425   0.00000   Biso      1.000     C          -0.057682           
         C12       1.0000    0.73280   0.90590   0.58330   Biso      1.000     C          -0.213297           
         C13       1.0000    0.59360   0.49860   0.50140   Biso      1.000     C          -0.319283           
         C14       1.0000    0.09500   0.00000   0.49860   Biso      1.000     C          -0.321044           
         C15       1.0000    0.74990   0.18590   0.45350   Biso      1.000     C          0.630779  
         C16       1.0000    0.56400   0.36060   0.18590   Biso      1.000     C          0.631722  
         C17       1.0000    0.04350   0.53360   0.90620   Biso      1.000     C          0.362796  
         C18       1.0000    0.09500   0.50140   0.00000   Biso      1.000     C          -0.321054           
         C19       1.0000    0.50990   0.46640   0.43980   Biso      1.000     C          0.361847  
         C20       1.0000    0.31610   0.48920   0.41670   Biso      1.000     C          -0.212882           
         C21       1.0000    0.82690   0.09410   0.48920   Biso      1.000     C          -0.213536           
         C22       1.0000    0.20340   0.63940   0.54650   Biso      1.000     C          0.630859  
         C23       1.0000    0.74990   0.54650   0.81410   Biso      1.000     C          0.630777  
         C24       1.0000    0.73280   0.41670   0.09410   Biso      1.000     C          -0.213302           
         Co1       1.0000    0.10690   0.71630   0.70060   Biso      1.000     Co          0.989577  
         Co2       1.0000    0.39060   0.58310   0.71630   Biso      1.000     Co          0.98953   
         Co3       1.0000    0.39060   0.28370   0.41690   Biso      1.000     Co          0.989532  
         Co4       1.0000    0.80750   0.70060   0.58310   Biso      1.000     Co          0.989273  
         Co5       1.0000    0.80750   0.41690   0.29940   Biso      1.000     Co          0.989276  
         Co6       1.0000    0.10690   0.29940   0.28370   Biso      1.000     Co          0.989605  
         H1        1.0000    0.54320   0.00000   0.56940   Biso      1.000     H          0.132193  
         H2        1.0000    0.54320   0.43060   0.00000   Biso      1.000     H          0.132193  
         H3        1.0000    0.72990   0.48585   0.51415   Biso      1.000     H          0.164483  
         H4        1.0000    0.24405   0.51415   0.00000   Biso      1.000     H          0.165252  
         H5        1.0000    0.11260   0.56940   0.43060   Biso      1.000     H          0.131088  
         H6        1.0000    0.24405   0.00000   0.48585   Biso      1.000     H          0.165253  
         O1        1.0000    0.60020   0.72620   0.65620   Biso      1.000     O          -0.597119           
         O2        1.0000    0.18190   0.18270   0.39660   Biso      1.000     O          -0.589284           
         O3        1.0000    0.05460   0.67080   0.50980   Biso      1.000     O          -0.542927           
         O4        1.0000    0.99920   0.81730   0.57930   Biso      1.000     O          -0.589685           
         O5        1.0000    0.57850   0.57930   0.60340   Biso      1.000     O          -0.588624           
         O6        1.0000    0.87400   0.27380   0.38240   Biso      1.000     O          -0.596275           
         O7        1.0000    0.25640   0.65620   0.61760   Biso      1.000     O          -0.597768           
         O8        1.0000    0.38380   0.32920   0.18060   Biso      1.000     O          -0.543566           
         O9        1.0000    0.57850   0.39660   0.42070   Biso      1.000     O          -0.588624           
         O10       1.0000    0.60020   0.34380   0.27380   Biso      1.000     O          -0.597106           
         O11       1.0000    0.87400   0.61760   0.72620   Biso      1.000     O          -0.596241           
         O12       1.0000    0.38380   0.81940   0.67080   Biso      1.000     O          -0.543552           
         O13       1.0000    0.18190   0.60340   0.81730   Biso      1.000     O          -0.589267           
         O14       1.0000    0.56440   0.18060   0.49020   Biso      1.000     O          -0.543129           
         O15       1.0000    0.25640   0.38240   0.34380   Biso      1.000     O          -0.597754           
         O16       1.0000    0.56440   0.50980   0.81940   Biso      1.000     O          -0.543129           
         O17       1.0000    0.05460   0.49020   0.32920   Biso      1.000     O          -0.542905           
         O18       1.0000    0.99920   0.42070   0.18270   Biso      1.000     O          -0.589672 