
##########################################################################
#               Crystallographic Information Format file
#               Produced by PyCifRW module
#
#  This is a CIF file.  CIF has been adopted by the International
#  Union of Crystallography as the standard for data archiving and
#  transmission.
#
#  For information on this file format, follow the CIF links at
#  http://www.iucr.org
##########################################################################

data_image0

_cell_length_a                          6.8687
_cell_length_b                          15.1109
_cell_length_c                          15.1109
_cell_angle_alpha                       62.2533
_cell_angle_beta                        81.2851
_cell_angle_gamma                       98.7149
_symmetry_space_group_name_H-M          'P 1'
_symmetry_int_tables_number             1
loop_
  _symmetry_equiv_pos_as_xyz
         'x, y, z' 
loop_
  _atom_site_label
  _atom_site_occupancy
  _atom_site_fract_x
  _atom_site_fract_y
  _atom_site_fract_z
  _atom_site_thermal_displace_type
  _atom_site_B_iso_or_equiv
  _atom_site_type_symbol
  _atom_site_charge
         C1        1.0000    0.03180   0.89350   0.52960   Biso      1.000     C          0.326289  
         C2        1.0000    0.96820   0.10650   0.47040   Biso      1.000     C          0.326287  
         C3        1.0000    0.25700   0.61690   0.56100   Biso      1.000     C          0.642066  
         C4        1.0000    0.31780   0.52110   0.46360   Biso      1.000     C          -0.229042           
         C5        1.0000    0.20330   0.98470   0.47890   Biso      1.000     C          -0.228008           
         C6        1.0000    0.18200   0.43900   0.17790   Biso      1.000     C          0.640412  
         C7        1.0000    0.38890   0.54860   0.53860   Biso      1.000     C          -0.183324           
         C8        1.0000    0.78140   0.46360   0.01530   Biso      1.000     C          -0.229686           
         C9        1.0000    0.15970   0.08720   0.45140   Biso      1.000     C          -0.184045           
         C10       1.0000    0.43860   0.47040   0.42310   Biso      1.000     C          0.325004  
         C11       1.0000    0.61110   0.45140   0.46140   Biso      1.000     C          -0.183325           
         C12       1.0000    0.56140   0.52960   0.57690   Biso      1.000     C          0.325005  
         C13       1.0000    0.92750   0.53860   0.91280   Biso      1.000     C          -0.185218           
         C14       1.0000    0.86170   0.42310   0.10650   Biso      1.000     C          0.327568  
         C15       1.0000    0.35990   0.17790   0.38310   Biso      1.000     C          0.638321  
         C16       1.0000    0.21860   0.53640   0.98470   Biso      1.000     C          -0.229686           
         C17       1.0000    0.74300   0.38310   0.43900   Biso      1.000     C          0.642064  
         C18       1.0000    0.79670   0.01530   0.52110   Biso      1.000     C          -0.228007           
         C19       1.0000    0.07250   0.46140   0.08720   Biso      1.000     C          -0.185219           
         C20       1.0000    0.84030   0.91280   0.54860   Biso      1.000     C          -0.184045           
         C21       1.0000    0.68220   0.47890   0.53640   Biso      1.000     C          -0.229042           
         C22       1.0000    0.81800   0.56100   0.82210   Biso      1.000     C          0.640412  
         C23       1.0000    0.64010   0.82210   0.61690   Biso      1.000     C          0.638322  
         C24       1.0000    0.13830   0.57690   0.89350   Biso      1.000     C          0.327569  
         Co1       1.0000    0.77930   0.25940   0.32410   Biso      1.000     Co          0.947254  
         Co2       1.0000    0.10340   0.32410   0.41650   Biso      1.000     Co          0.947968  
         Co3       1.0000    0.51990   0.41650   0.25940   Biso      1.000     Co          0.948211  
         Co4       1.0000    0.89660   0.67590   0.58350   Biso      1.000     Co          0.94798   
         Co5       1.0000    0.48010   0.58350   0.74060   Biso      1.000     Co          0.948216  
         Co6       1.0000    0.22070   0.74060   0.67590   Biso      1.000     Co          0.947254  
         H1        1.0000    0.20080   0.52770   0.44740   Biso      1.000     H          0.157419  
         H2        1.0000    0.35180   0.55260   0.97510   Biso      1.000     H          0.158317  
         H3        1.0000    0.67310   0.02490   0.52770   Biso      1.000     H          0.156577  
         H4        1.0000    0.64820   0.44740   0.02490   Biso      1.000     H          0.158316  
         H5        1.0000    0.32690   0.97510   0.47230   Biso      1.000     H          0.156577  
         H6        1.0000    0.79920   0.47230   0.55260   Biso      1.000     H          0.157419  
         O1        1.0000    0.47430   0.84560   0.62120   Biso      1.000     O          -0.51844  
         O2        1.0000    0.64060   0.55880   0.63190   Biso      1.000     O          -0.548872           
         O3        1.0000    0.37130   0.46680   0.15440   Biso      1.000     O          -0.519636           
         O4        1.0000    0.35940   0.44120   0.36810   Biso      1.000     O          -0.54887  
         O5        1.0000    0.52570   0.15440   0.37880   Biso      1.000     O          -0.51844  
         O6        1.0000    0.07700   0.38250   0.26630   Biso      1.000     O          -0.590013           
         O7        1.0000    0.27250   0.63190   0.80930   Biso      1.000     O          -0.54974  
         O8        1.0000    0.91820   0.19070   0.44120   Biso      1.000     O          -0.548928           
         O9        1.0000    0.09550   0.62120   0.53320   Biso      1.000     O          -0.520805           
         O10       1.0000    0.65670   0.73370   0.64880   Biso      1.000     O          -0.588976           
         O11       1.0000    0.72750   0.36810   0.19070   Biso      1.000     O          -0.549738           
         O12       1.0000    0.30550   0.64880   0.61750   Biso      1.000     O          -0.590681           
         O13       1.0000    0.34330   0.26630   0.35120   Biso      1.000     O          -0.588974           
         O14       1.0000    0.08180   0.80930   0.55880   Biso      1.000     O          -0.548931           
         O15       1.0000    0.90450   0.37880   0.46680   Biso      1.000     O          -0.520802           
         O16       1.0000    0.92300   0.61750   0.73370   Biso      1.000     O          -0.590016           
         O17       1.0000    0.62870   0.53320   0.84560   Biso      1.000     O          -0.519639           
         O18       1.0000    0.69450   0.35120   0.38250   Biso      1.000     O          -0.590678 