
##########################################################################
#               Crystallographic Information Format file
#               Produced by PyCifRW module
#
#  This is a CIF file.  CIF has been adopted by the International
#  Union of Crystallography as the standard for data archiving and
#  transmission.
#
#  For information on this file format, follow the CIF links at
#  http://www.iucr.org
##########################################################################

data_image0

_cell_length_a                          6.7292
_cell_length_b                          15.0619
_cell_length_c                          15.0619
_cell_angle_alpha                       62.1776
_cell_angle_beta                        81.4354
_cell_angle_gamma                       98.5646
_symmetry_space_group_name_H-M          'P 1'
_symmetry_int_tables_number             1
loop_
  _symmetry_equiv_pos_as_xyz
         'x, y, z' 
loop_
  _atom_site_label
  _atom_site_occupancy
  _atom_site_fract_x
  _atom_site_fract_y
  _atom_site_fract_z
  _atom_site_thermal_displace_type
  _atom_site_B_iso_or_equiv
  _atom_site_type_symbol
  _atom_site_charge
         C1        1.0000    0.08685   0.00000   0.50145   Biso      1.000     C          -0.340059           
         C2        1.0000    0.73070   0.90800   0.58690   Biso      1.000     C          -0.220072           
         C3        1.0000    0.55690   0.81380   0.64510   Biso      1.000     C          0.623482  
         C4        1.0000    0.04110   0.09820   0.46390   Biso      1.000     C          0.380923  
         C5        1.0000    0.68590   0.00000   0.55830   Biso      1.000     C          -0.045906999999999996         
         C6        1.0000    0.82270   0.09200   0.49490   Biso      1.000     C          -0.22196999999999997          
         C7        1.0000    0.08685   0.49855   0.00000   Biso      1.000     C          -0.34005100000000005          
         C8        1.0000    0.94290   0.43790   0.09820   Biso      1.000     C          0.37646199999999996           
         C9        1.0000    0.04110   0.53610   0.90180   Biso      1.000     C          0.380922  
         C10       1.0000    0.68590   0.44170   0.00000   Biso      1.000     C          -0.045938           
         C11       1.0000    0.73070   0.41310   0.09200   Biso      1.000     C          -0.220041           
         C12       1.0000    0.74310   0.54110   0.81380   Biso      1.000     C          0.62507   
         C13       1.0000    0.20200   0.45890   0.35490   Biso      1.000     C          0.624451  
         C14       1.0000    0.20200   0.64510   0.54110   Biso      1.000     C          0.624451  
         C15       1.0000    0.58830   0.50145   0.49855   Biso      1.000     C          -0.342465           
         C16       1.0000    0.74310   0.18620   0.45890   Biso      1.000     C          0.62507   
         C17       1.0000    0.55690   0.35490   0.18620   Biso      1.000     C          0.62348   
         C18       1.0000    0.94290   0.90180   0.56210   Biso      1.000     C          0.376465  
         C19       1.0000    0.31760   0.49490   0.41310   Biso      1.000     C          -0.21930500000000003          
         C20       1.0000    0.82270   0.50510   0.90800   Biso      1.000     C          -0.22196100000000002          
         C21       1.0000    0.50500   0.46390   0.43790   Biso      1.000     C          0.379515  
         C22       1.0000    0.50500   0.56210   0.53610   Biso      1.000     C          0.37951999999999997           
         C23       1.0000    0.31760   0.58690   0.50510   Biso      1.000     C          -0.219308           
         C24       1.0000    0.24420   0.55830   0.44170   Biso      1.000     C          -0.04641  
         H1        1.0000    0.10620   0.57180   0.42820   Biso      1.000     H          0.11996300000000001           
         H2        1.0000    0.53440   0.42820   0.00000   Biso      1.000     H          0.121169  
         H3        1.0000    0.25950   0.00000   0.48150   Biso      1.000     H          0.125782  
         H4        1.0000    0.74100   0.48150   0.51850   Biso      1.000     H          0.127355  
         H5        1.0000    0.25950   0.51850   0.00000   Biso      1.000     H          0.125782  
         H6        1.0000    0.53440   0.00000   0.57180   Biso      1.000     H          0.12116600000000001           
         Ni1       1.0000    0.11630   0.71870   0.70420   Biso      1.000     Ni          0.9522729999999999  
         Ni2       1.0000    0.39760   0.57710   0.71870   Biso      1.000     Ni          0.9516620000000001  
         Ni3       1.0000    0.39760   0.28130   0.42290   Biso      1.000     Ni          0.95165   
         Ni4       1.0000    0.82050   0.70420   0.57710   Biso      1.000     Ni          0.951968  
         Ni5       1.0000    0.82050   0.42290   0.29580   Biso      1.000     Ni          0.952003  
         Ni6       1.0000    0.11630   0.29580   0.28130   Biso      1.000     Ni          0.9522459999999999  
         O1        1.0000    0.86640   0.27250   0.38530   Biso      1.000     O          -0.5711390000000001           
         O2        1.0000    0.99460   0.41260   0.18180   Biso      1.000     O          -0.570471           
         O3        1.0000    0.59390   0.34220   0.27250   Biso      1.000     O          -0.5711189999999999           
         O4        1.0000    0.99460   0.81820   0.58740   Biso      1.000     O          -0.5704600000000001           
         O5        1.0000    0.38060   0.32840   0.17260   Biso      1.000     O          -0.521025           
         O6        1.0000    0.25170   0.38530   0.34220   Biso      1.000     O          -0.5702649999999999           
         O7        1.0000    0.55320   0.17260   0.49900   Biso      1.000     O          -0.522012           
         O8        1.0000    0.25170   0.65780   0.61470   Biso      1.000     O          -0.570259           
         O9        1.0000    0.17640   0.59440   0.81820   Biso      1.000     O          -0.574016           
         O10       1.0000    0.38060   0.82740   0.67160   Biso      1.000     O          -0.521038           
         O11       1.0000    0.05220   0.67160   0.50100   Biso      1.000     O          -0.521259           
         O12       1.0000    0.86640   0.61470   0.72750   Biso      1.000     O          -0.57115  
         O13       1.0000    0.55320   0.50100   0.82740   Biso      1.000     O          -0.522022           
         O14       1.0000    0.17640   0.18180   0.40560   Biso      1.000     O          -0.574009           
         O15       1.0000    0.59390   0.72750   0.65780   Biso      1.000     O          -0.571114           
         O16       1.0000    0.58200   0.40560   0.41260   Biso      1.000     O          -0.573341           
         O17       1.0000    0.58200   0.58740   0.59440   Biso      1.000     O          -0.5733560000000001           
         O18       1.0000    0.05220   0.49900   0.32840   Biso      1.000     O          -0.5212829999999999 