
##########################################################################
#               Crystallographic Information Format file
#               Produced by PyCifRW module
#
#  This is a CIF file.  CIF has been adopted by the International
#  Union of Crystallography as the standard for data archiving and
#  transmission.
#
#  For information on this file format, follow the CIF links at
#  http://www.iucr.org
##########################################################################

data_image0

_cell_length_a                          6.882
_cell_length_b                          15.1158
_cell_length_c                          15.1158
_cell_angle_alpha                       62.2605
_cell_angle_beta                        81.2709
_cell_angle_gamma                       98.7291
_symmetry_space_group_name_H-M          'P 1'
_symmetry_int_tables_number             1
loop_
  _symmetry_equiv_pos_as_xyz
         'x, y, z' 
loop_
  _atom_site_label
  _atom_site_occupancy
  _atom_site_fract_x
  _atom_site_fract_y
  _atom_site_fract_z
  _atom_site_thermal_displace_type
  _atom_site_B_iso_or_equiv
  _atom_site_type_symbol
  _atom_site_charge
         C1        1.0000    0.35710   0.17570   0.38360   Biso      1.000     C          0.651909  
         C2        1.0000    0.80180   0.01210   0.51910   Biso      1.000     C          -0.197507           
         C3        1.0000    0.81860   0.55930   0.82430   Biso      1.000     C          0.6513100000000001  
         C4        1.0000    0.61650   0.45050   0.46170   Biso      1.000     C          -0.161417           
         C5        1.0000    0.56550   0.53250   0.57140   Biso      1.000     C          0.298728  
         C6        1.0000    0.16600   0.08780   0.45050   Biso      1.000     C          -0.160858           
         C7        1.0000    0.19820   0.98790   0.48090   Biso      1.000     C          -0.197507           
         C8        1.0000    0.13690   0.57140   0.89610   Biso      1.000     C          0.301134  
         C9        1.0000    0.43450   0.46750   0.42860   Biso      1.000     C          0.298728  
         C10       1.0000    0.25930   0.61640   0.55930   Biso      1.000     C          0.649096  
         C11       1.0000    0.96700   0.10390   0.46750   Biso      1.000     C          0.298174  
         C12       1.0000    0.03300   0.89610   0.53250   Biso      1.000     C          0.298175  
         C13       1.0000    0.67910   0.48090   0.53120   Biso      1.000     C          -0.196271           
         C14       1.0000    0.78970   0.46880   0.01210   Biso      1.000     C          -0.198656           
         C15       1.0000    0.21030   0.53120   0.98790   Biso      1.000     C          -0.198657           
         C16       1.0000    0.18140   0.44070   0.17570   Biso      1.000     C          0.651309  
         C17       1.0000    0.32090   0.51910   0.46880   Biso      1.000     C          -0.19627  
         C18       1.0000    0.38350   0.54950   0.53830   Biso      1.000     C          -0.161417           
         C19       1.0000    0.86310   0.42860   0.10390   Biso      1.000     C          0.301132  
         C20       1.0000    0.92180   0.53830   0.91220   Biso      1.000     C          -0.162101           
         C21       1.0000    0.07820   0.46170   0.08780   Biso      1.000     C          -0.162101           
         C22       1.0000    0.83400   0.91220   0.54950   Biso      1.000     C          -0.160858           
         C23       1.0000    0.64290   0.82430   0.61640   Biso      1.000     C          0.651909  
         C24       1.0000    0.74070   0.38360   0.44070   Biso      1.000     C          0.649096  
         Co1       1.0000    0.48660   0.58770   0.73190   Biso      1.000     Co          0.948155  
         Co2       1.0000    0.10110   0.31960   0.41230   Biso      1.000     Co          0.947685  
         Co3       1.0000    0.51340   0.41230   0.26810   Biso      1.000     Co          0.948153  
         Co4       1.0000    0.21850   0.73190   0.68040   Biso      1.000     Co          0.9478129999999999  
         Co5       1.0000    0.78150   0.26810   0.31960   Biso      1.000     Co          0.9478110000000001  
         Co6       1.0000    0.89890   0.68040   0.58770   Biso      1.000     Co          0.947686  
         H1        1.0000    0.19730   0.53210   0.44220   Biso      1.000     H          0.147235  
         H2        1.0000    0.33480   0.97430   0.46790   Biso      1.000     H          0.147707  
         H3        1.0000    0.66520   0.02570   0.53210   Biso      1.000     H          0.147706  
         H4        1.0000    0.80270   0.46790   0.55780   Biso      1.000     H          0.147235  
         H5        1.0000    0.36050   0.55780   0.97430   Biso      1.000     H          0.14791700000000002           
         H6        1.0000    0.63950   0.44220   0.02570   Biso      1.000     H          0.14791700000000002           
         O1        1.0000    0.27730   0.63150   0.80800   Biso      1.000     O          -0.562531           
         O2        1.0000    0.07060   0.38140   0.26340   Biso      1.000     O          -0.594106           
         O3        1.0000    0.68920   0.35520   0.38140   Biso      1.000     O          -0.593445           
         O4        1.0000    0.64580   0.56050   0.63150   Biso      1.000     O          -0.5616939999999999           
         O5        1.0000    0.89920   0.37310   0.47130   Biso      1.000     O          -0.5297649999999999           
         O6        1.0000    0.10080   0.62690   0.52870   Biso      1.000     O          -0.529766           
         O7        1.0000    0.08530   0.80800   0.56050   Biso      1.000     O          -0.561136           
         O8        1.0000    0.37050   0.47130   0.15560   Biso      1.000     O          -0.530971           
         O9        1.0000    0.33400   0.26340   0.35520   Biso      1.000     O          -0.595378           
         O10       1.0000    0.62950   0.52870   0.84440   Biso      1.000     O          -0.530972           
         O11       1.0000    0.47390   0.84440   0.62690   Biso      1.000     O          -0.531025           
         O12       1.0000    0.52610   0.15560   0.37310   Biso      1.000     O          -0.5310239999999999           
         O13       1.0000    0.35420   0.43950   0.36850   Biso      1.000     O          -0.561693           
         O14       1.0000    0.91470   0.19200   0.43950   Biso      1.000     O          -0.561134           
         O15       1.0000    0.66600   0.73660   0.64480   Biso      1.000     O          -0.595378           
         O16       1.0000    0.31080   0.64480   0.61860   Biso      1.000     O          -0.593446           
         O17       1.0000    0.92940   0.61860   0.73660   Biso      1.000     O          -0.594106           
         O18       1.0000    0.72270   0.36850   0.19200   Biso      1.000     O          -0.562529 