
##########################################################################
#               Crystallographic Information Format file
#               Produced by PyCifRW module
#
#  This is a CIF file.  CIF has been adopted by the International
#  Union of Crystallography as the standard for data archiving and
#  transmission.
#
#  For information on this file format, follow the CIF links at
#  http://www.iucr.org
##########################################################################

data_image0

_cell_length_a                          6.7613
_cell_length_b                          15.0663
_cell_length_c                          15.0663
_cell_angle_alpha                       62.1969
_cell_angle_beta                        81.3969
_cell_angle_gamma                       98.6031
_symmetry_space_group_name_H-M          'P 1'
_symmetry_int_tables_number             1
loop_
  _symmetry_equiv_pos_as_xyz
         'x, y, z' 
loop_
  _atom_site_label
  _atom_site_occupancy
  _atom_site_fract_x
  _atom_site_fract_y
  _atom_site_fract_z
  _atom_site_thermal_displace_type
  _atom_site_B_iso_or_equiv
  _atom_site_type_symbol
  _atom_site_charge
         C1        1.0000    0.08790   0.50770   0.00000   Biso      1.000     C          -0.445925           
         C2        1.0000    0.95700   0.90650   0.55450   Biso      1.000     C          0.46869099999999997           
         C3        1.0000    0.58020   0.49230   0.50770   Biso      1.000     C          -0.44978100000000004          
         C4        1.0000    0.08790   0.00000   0.49230   Biso      1.000     C          -0.445902           
         C5        1.0000    0.72140   0.42530   0.09010   Biso      1.000     C          -0.246439           
         C6        1.0000    0.81150   0.09010   0.48460   Biso      1.000     C          -0.247903           
         C7        1.0000    0.81150   0.51540   0.90990   Biso      1.000     C          -0.247917           
         C8        1.0000    0.05050   0.53900   0.90650   Biso      1.000     C          0.467862  
         C9        1.0000    0.68670   0.00000   0.55290   Biso      1.000     C          -0.035572           
         C10       1.0000    0.29610   0.57470   0.51540   Biso      1.000     C          -0.24511599999999997          
         C11       1.0000    0.73950   0.54460   0.81310   Biso      1.000     C          0.599072  
         C12       1.0000    0.23960   0.55290   0.44710   Biso      1.000     C          -0.036644           
         C13       1.0000    0.19490   0.64230   0.54460   Biso      1.000     C          0.599178  
         C14       1.0000    0.51150   0.55450   0.53900   Biso      1.000     C          0.469933  
         C15       1.0000    0.73950   0.18690   0.45540   Biso      1.000     C          0.599071  
         C16       1.0000    0.19490   0.45540   0.35770   Biso      1.000     C          0.599173  
         C17       1.0000    0.05050   0.09350   0.46100   Biso      1.000     C          0.467858  
         C18       1.0000    0.51150   0.46100   0.44550   Biso      1.000     C          0.46993   
         C19       1.0000    0.72140   0.90990   0.57470   Biso      1.000     C          -0.246383           
         C20       1.0000    0.55260   0.35770   0.18690   Biso      1.000     C          0.5973970000000001  
         C21       1.0000    0.29610   0.48460   0.42530   Biso      1.000     C          -0.24508000000000002          
         C22       1.0000    0.68670   0.44710   0.00000   Biso      1.000     C          -0.035523           
         C23       1.0000    0.55260   0.81310   0.64230   Biso      1.000     C          0.59739   
         C24       1.0000    0.95700   0.44550   0.09350   Biso      1.000     C          0.46871999999999997           
         H1        1.0000    0.09800   0.57000   0.43000   Biso      1.000     H          0.108018  
         H2        1.0000    0.22900   0.00000   0.49500   Biso      1.000     H          0.14852200000000002           
         H3        1.0000    0.22900   0.50500   0.00000   Biso      1.000     H          0.148524  
         H4        1.0000    0.52800   0.00000   0.57000   Biso      1.000     H          0.11084300000000001           
         H5        1.0000    0.52800   0.43000   0.00000   Biso      1.000     H          0.11084000000000001           
         H6        1.0000    0.72400   0.49500   0.50500   Biso      1.000     H          0.149989  
         Ni1       1.0000    0.11620   0.71900   0.69940   Biso      1.000     Ni          0.906645  
         Ni2       1.0000    0.81560   0.41840   0.30060   Biso      1.000     Ni          0.907488  
         Ni3       1.0000    0.11620   0.30060   0.28100   Biso      1.000     Ni          0.906594  
         Ni4       1.0000    0.39720   0.28100   0.41840   Biso      1.000     Ni          0.906374  
         Ni5       1.0000    0.39720   0.58160   0.71900   Biso      1.000     Ni          0.9063709999999999  
         Ni6       1.0000    0.81560   0.69940   0.58160   Biso      1.000     Ni          0.907438  
         O1        1.0000    0.26200   0.65260   0.61760   Biso      1.000     O          -0.573921           
         O2        1.0000    0.15970   0.17450   0.40640   Biso      1.000     O          -0.52166  
         O3        1.0000    0.04100   0.66810   0.50410   Biso      1.000     O          -0.518654           
         O4        1.0000    0.04100   0.49590   0.33190   Biso      1.000     O          -0.518668           
         O5        1.0000    0.26200   0.38240   0.34740   Biso      1.000     O          -0.573913           
         O6        1.0000    0.56610   0.40640   0.41910   Biso      1.000     O          -0.523647           
         O7        1.0000    0.54510   0.17220   0.49590   Biso      1.000     O          -0.5191359999999999           
         O8        1.0000    0.56610   0.58090   0.59360   Biso      1.000     O          -0.523637           
         O9        1.0000    0.87960   0.27020   0.38240   Biso      1.000     O          -0.5747180000000001           
         O10       1.0000    0.87960   0.61760   0.72980   Biso      1.000     O          -0.5747220000000001           
         O11       1.0000    0.98520   0.41910   0.17450   Biso      1.000     O          -0.523351           
         O12       1.0000    0.98520   0.82550   0.58090   Biso      1.000     O          -0.523352           
         O13       1.0000    0.54510   0.50410   0.82780   Biso      1.000     O          -0.519139           
         O14       1.0000    0.37290   0.33190   0.17220   Biso      1.000     O          -0.519008           
         O15       1.0000    0.37290   0.82780   0.66810   Biso      1.000     O          -0.519018           
         O16       1.0000    0.15970   0.59360   0.82550   Biso      1.000     O          -0.521666           
         O17       1.0000    0.60940   0.34740   0.27020   Biso      1.000     O          -0.57277  
         O18       1.0000    0.60940   0.72980   0.65260   Biso      1.000     O          -0.572758 