
##########################################################################
#               Crystallographic Information Format file
#               Produced by PyCifRW module
#
#  This is a CIF file.  CIF has been adopted by the International
#  Union of Crystallography as the standard for data archiving and
#  transmission.
#
#  For information on this file format, follow the CIF links at
#  http://www.iucr.org
##########################################################################

data_image0

_cell_length_a                          6.739
_cell_length_b                          15.0349
_cell_length_c                          15.0349
_cell_angle_alpha                       62.1916
_cell_angle_beta                        81.4074
_cell_angle_gamma                       98.5926
_symmetry_space_group_name_H-M          'P 1'
_symmetry_int_tables_number             1
loop_
  _symmetry_equiv_pos_as_xyz
         'x, y, z' 
loop_
  _atom_site_label
  _atom_site_occupancy
  _atom_site_fract_x
  _atom_site_fract_y
  _atom_site_fract_z
  _atom_site_thermal_displace_type
  _atom_site_B_iso_or_equiv
  _atom_site_type_symbol
  _atom_site_charge
         C1        1.0000    0.55070   0.35720   0.18910   Biso      1.000     C          0.585336  
         C2        1.0000    0.73980   0.18910   0.45370   Biso      1.000     C          0.583584  
         C3        1.0000    0.94710   0.90850   0.55920   Biso      1.000     C          0.388583  
         C4        1.0000    0.03860   0.09150   0.46770   Biso      1.000     C          0.388234  
         C5        1.0000    0.58420   0.49830   0.50170   Biso      1.000     C          -0.333027           
         C6        1.0000    0.81510   0.09090   0.48360   Biso      1.000     C          -0.19209400000000001          
         C7        1.0000    0.67980   0.44440   0.00000   Biso      1.000     C          -0.062933           
         C8        1.0000    0.94710   0.44080   0.09150   Biso      1.000     C          0.38858400000000004           
         C9        1.0000    0.23540   0.55560   0.44440   Biso      1.000     C          -0.06450299999999999          
         C10       1.0000    0.03860   0.53230   0.90850   Biso      1.000     C          0.38823   
         C11       1.0000    0.73980   0.54630   0.81090   Biso      1.000     C          0.583583  
         C12       1.0000    0.72420   0.90910   0.57450   Biso      1.000     C          -0.194275           
         C13       1.0000    0.19350   0.45370   0.35720   Biso      1.000     C          0.578854  
         C14       1.0000    0.19350   0.64280   0.54630   Biso      1.000     C          0.578855  
         C15       1.0000    0.55070   0.81090   0.64280   Biso      1.000     C          0.585337  
         C16       1.0000    0.29870   0.48360   0.42550   Biso      1.000     C          -0.19053  
         C17       1.0000    0.08590   0.00000   0.49830   Biso      1.000     C          -0.333875           
         C18       1.0000    0.81510   0.51640   0.90910   Biso      1.000     C          -0.192074           
         C19       1.0000    0.50630   0.46770   0.44080   Biso      1.000     C          0.39107   
         C20       1.0000    0.72420   0.42550   0.09090   Biso      1.000     C          -0.19425499999999998          
         C21       1.0000    0.67980   0.00000   0.55560   Biso      1.000     C          -0.0629   
         C22       1.0000    0.50630   0.55920   0.53230   Biso      1.000     C          0.391073  
         C23       1.0000    0.08590   0.50170   0.00000   Biso      1.000     C          -0.33387100000000003          
         C24       1.0000    0.29870   0.57450   0.51640   Biso      1.000     C          -0.19053299999999998          
         H1        1.0000    0.10770   0.56355   0.43645   Biso      1.000     H          0.12674100000000002           
         H2        1.0000    0.54415   0.43645   0.00000   Biso      1.000     H          0.127735  
         H3        1.0000    0.22255   0.00000   0.49335   Biso      1.000     H          0.168488  
         H4        1.0000    0.54415   0.00000   0.56355   Biso      1.000     H          0.12773299999999999           
         H5        1.0000    0.71590   0.49335   0.50665   Biso      1.000     H          0.167237  
         H6        1.0000    0.22255   0.50665   0.00000   Biso      1.000     H          0.168488  
         Ni1       1.0000    0.39080   0.28040   0.41780   Biso      1.000     Ni          0.959724  
         Ni2       1.0000    0.80860   0.69820   0.58220   Biso      1.000     Ni          0.9592790000000001  
         Ni3       1.0000    0.39080   0.58220   0.71960   Biso      1.000     Ni          0.959735  
         Ni4       1.0000    0.11040   0.71960   0.69820   Biso      1.000     Ni          0.9586370000000001  
         Ni5       1.0000    0.80860   0.41780   0.30180   Biso      1.000     Ni          0.9593209999999999  
         Ni6       1.0000    0.11040   0.30180   0.28040   Biso      1.000     Ni          0.958609  
         O1        1.0000    0.24610   0.65680   0.61850   Biso      1.000     O          -0.537267           
         O2        1.0000    0.24610   0.38150   0.34320   Biso      1.000     O          -0.537263           
         O3        1.0000    0.36030   0.82480   0.67290   Biso      1.000     O          -0.541998           
         O4        1.0000    0.03320   0.67290   0.50230   Biso      1.000     O          -0.539057           
         O5        1.0000    0.56790   0.58280   0.60210   Biso      1.000     O          -0.611574           
         O6        1.0000    0.17000   0.60210   0.81510   Biso      1.000     O          -0.6093810000000001           
         O7        1.0000    0.58930   0.72470   0.65680   Biso      1.000     O          -0.537844           
         O8        1.0000    0.53550   0.50230   0.82480   Biso      1.000     O          -0.540459           
         O9        1.0000    0.03320   0.49770   0.32710   Biso      1.000     O          -0.539072           
         O10       1.0000    0.36030   0.32710   0.17520   Biso      1.000     O          -0.541989           
         O11       1.0000    0.58930   0.34320   0.27530   Biso      1.000     O          -0.5378470000000001           
         O12       1.0000    0.56790   0.39790   0.41720   Biso      1.000     O          -0.6115689999999999           
         O13       1.0000    0.17000   0.18490   0.39790   Biso      1.000     O          -0.609376           
         O14       1.0000    0.86460   0.27530   0.38150   Biso      1.000     O          -0.5380189999999999           
         O15       1.0000    0.98510   0.81510   0.58280   Biso      1.000     O          -0.6084930000000001           
         O16       1.0000    0.98510   0.41720   0.18490   Biso      1.000     O          -0.608504           
         O17       1.0000    0.53550   0.17520   0.49770   Biso      1.000     O          -0.540452           
         O18       1.0000    0.86460   0.61850   0.72470   Biso      1.000     O          -0.538018 