
##########################################################################
#               Crystallographic Information Format file
#               Produced by PyCifRW module
#
#  This is a CIF file.  CIF has been adopted by the International
#  Union of Crystallography as the standard for data archiving and
#  transmission.
#
#  For information on this file format, follow the CIF links at
#  http://www.iucr.org
##########################################################################

data_image0

_cell_length_a                          6.7545
_cell_length_b                          15.0511
_cell_length_c                          15.0511
_cell_angle_alpha                       62.1969
_cell_angle_beta                        81.3969
_cell_angle_gamma                       98.6031
_symmetry_space_group_name_H-M          'P 1'
_symmetry_int_tables_number             1
loop_
  _symmetry_equiv_pos_as_xyz
         'x, y, z' 
loop_
  _atom_site_label
  _atom_site_occupancy
  _atom_site_fract_x
  _atom_site_fract_y
  _atom_site_fract_z
  _atom_site_thermal_displace_type
  _atom_site_B_iso_or_equiv
  _atom_site_type_symbol
  _atom_site_charge
         C1        1.0000    0.95090   0.90620   0.55750   Biso      1.000     C          0.397372  
         C2        1.0000    0.09585   0.00000   0.49245   Biso      1.000     C          -0.352619           
         C3        1.0000    0.56060   0.35460   0.18680   Biso      1.000     C          0.588282  
         C4        1.0000    0.81830   0.51720   0.90930   Biso      1.000     C          -0.199562           
         C5        1.0000    0.74740   0.18680   0.45860   Biso      1.000     C          0.589448  
         C6        1.0000    0.72760   0.90930   0.57350   Biso      1.000     C          -0.196303           
         C7        1.0000    0.04470   0.09380   0.46370   Biso      1.000     C          0.39808499999999997           
         C8        1.0000    0.56060   0.81320   0.64540   Biso      1.000     C          0.588283  
         C9        1.0000    0.58830   0.49245   0.50755   Biso      1.000     C          -0.355647           
         C10       1.0000    0.95090   0.44250   0.09380   Biso      1.000     C          0.397373  
         C11       1.0000    0.20600   0.64540   0.54140   Biso      1.000     C          0.592635  
         C12       1.0000    0.04470   0.53630   0.90620   Biso      1.000     C          0.398083  
         C13       1.0000    0.74740   0.54140   0.81320   Biso      1.000     C          0.589448  
         C14       1.0000    0.09585   0.50755   0.00000   Biso      1.000     C          -0.352615           
         C15       1.0000    0.67545   0.44035   0.00000   Biso      1.000     C          -0.092924           
         C16       1.0000    0.81830   0.09070   0.48280   Biso      1.000     C          -0.199561           
         C17       1.0000    0.67545   0.00000   0.55965   Biso      1.000     C          -0.092924           
         C18       1.0000    0.23510   0.55965   0.44035   Biso      1.000     C          -0.087574           
         C19       1.0000    0.20600   0.45860   0.35460   Biso      1.000     C          0.592635  
         C20       1.0000    0.50840   0.46370   0.44250   Biso      1.000     C          0.397581  
         C21       1.0000    0.50840   0.55750   0.53630   Biso      1.000     C          0.397582  
         C22       1.0000    0.30110   0.48280   0.42650   Biso      1.000     C          -0.197898           
         C23       1.0000    0.30110   0.57350   0.51720   Biso      1.000     C          -0.197899           
         C24       1.0000    0.72760   0.42650   0.09070   Biso      1.000     C          -0.196304           
         H1        1.0000    0.25050   0.50950   0.00000   Biso      1.000     H          0.157196  
         H2        1.0000    0.55150   0.00000   0.56550   Biso      1.000     H          0.139441  
         H3        1.0000    0.55150   0.43450   0.00000   Biso      1.000     H          0.139441  
         H4        1.0000    0.25050   0.00000   0.49050   Biso      1.000     H          0.157196  
         H5        1.0000    0.74100   0.49050   0.50950   Biso      1.000     H          0.15870599999999999           
         H6        1.0000    0.11700   0.56550   0.43450   Biso      1.000     H          0.134927  
         Ni1       1.0000    0.81280   0.69510   0.58600   Biso      1.000     Ni          0.9555379999999999  
         Ni2       1.0000    0.39880   0.58600   0.71890   Biso      1.000     Ni          0.955263  
         Ni3       1.0000    0.81280   0.41400   0.30490   Biso      1.000     Ni          0.955575  
         Ni4       1.0000    0.11770   0.30490   0.28110   Biso      1.000     Ni          0.9552620000000001  
         Ni5       1.0000    0.11770   0.71890   0.69510   Biso      1.000     Ni          0.95531   
         Ni6       1.0000    0.39880   0.28110   0.41400   Biso      1.000     Ni          0.955274  
         O1        1.0000    0.98210   0.42020   0.18190   Biso      1.000     O          -0.570146           
         O2        1.0000    0.56190   0.57980   0.60210   Biso      1.000     O          -0.570381           
         O3        1.0000    0.24740   0.38040   0.34720   Biso      1.000     O          -0.562081           
         O4        1.0000    0.36980   0.82680   0.66440   Biso      1.000     O          -0.538053           
         O5        1.0000    0.98210   0.81810   0.57980   Biso      1.000     O          -0.5701470000000001           
         O6        1.0000    0.86700   0.27240   0.38040   Biso      1.000     O          -0.559267           
         O7        1.0000    0.54300   0.50880   0.82680   Biso      1.000     O          -0.539535           
         O8        1.0000    0.24740   0.65280   0.61960   Biso      1.000     O          -0.5620890000000001           
         O9        1.0000    0.86700   0.61960   0.72760   Biso      1.000     O          -0.559264           
         O10       1.0000    0.03420   0.49120   0.33560   Biso      1.000     O          -0.540604           
         O11       1.0000    0.56190   0.39790   0.42020   Biso      1.000     O          -0.570385           
         O12       1.0000    0.59460   0.72760   0.65280   Biso      1.000     O          -0.560971           
         O13       1.0000    0.54300   0.17320   0.49120   Biso      1.000     O          -0.539535           
         O14       1.0000    0.16400   0.18190   0.39790   Biso      1.000     O          -0.5710189999999999           
         O15       1.0000    0.59460   0.34720   0.27240   Biso      1.000     O          -0.560974           
         O16       1.0000    0.03420   0.66440   0.50880   Biso      1.000     O          -0.540593           
         O17       1.0000    0.36980   0.33560   0.17320   Biso      1.000     O          -0.53804  
         O18       1.0000    0.16400   0.60210   0.81810   Biso      1.000     O          -0.571024 