
##########################################################################
#               Crystallographic Information Format file
#               Produced by PyCifRW module
#
#  This is a CIF file.  CIF has been adopted by the International
#  Union of Crystallography as the standard for data archiving and
#  transmission.
#
#  For information on this file format, follow the CIF links at
#  http://www.iucr.org
##########################################################################

data_image0

_cell_length_a                          6.7767
_cell_length_b                          15.0999
_cell_length_c                          15.0999
_cell_angle_alpha                       62.1971
_cell_angle_beta                        81.3965
_cell_angle_gamma                       98.6035
_symmetry_space_group_name_H-M          'P 1'
_symmetry_int_tables_number             1
loop_
  _symmetry_equiv_pos_as_xyz
         'x, y, z' 
loop_
  _atom_site_label
  _atom_site_occupancy
  _atom_site_fract_x
  _atom_site_fract_y
  _atom_site_fract_z
  _atom_site_thermal_displace_type
  _atom_site_B_iso_or_equiv
  _atom_site_type_symbol
  _atom_site_charge
         C1        1.0000    0.72840   0.41180   0.09280   Biso      1.000     C          -0.19633699999999998          
         C2        1.0000    0.23180   0.55680   0.44320   Biso      1.000     C          -0.069439           
         C3        1.0000    0.73960   0.54270   0.81210   Biso      1.000     C          0.608781  
         C4        1.0000    0.82120   0.09280   0.49540   Biso      1.000     C          -0.196733           
         C5        1.0000    0.67500   0.00000   0.55680   Biso      1.000     C          -0.06750700000000001          
         C6        1.0000    0.73960   0.18790   0.45730   Biso      1.000     C          0.60877   
         C7        1.0000    0.31660   0.49540   0.41180   Biso      1.000     C          -0.191549           
         C8        1.0000    0.82120   0.50460   0.90720   Biso      1.000     C          -0.196737           
         C9        1.0000    0.94050   0.43860   0.09410   Biso      1.000     C          0.362902  
         C10       1.0000    0.31660   0.58820   0.50460   Biso      1.000     C          -0.191538           
         C11       1.0000    0.55170   0.35480   0.18790   Biso      1.000     C          0.607961  
         C12       1.0000    0.67500   0.44320   0.00000   Biso      1.000     C          -0.067498           
         C13       1.0000    0.19690   0.64520   0.54270   Biso      1.000     C          0.603743  
         C14       1.0000    0.55170   0.81210   0.64520   Biso      1.000     C          0.60797   
         C15       1.0000    0.03460   0.53270   0.90590   Biso      1.000     C          0.361865  
         C16       1.0000    0.08235   0.50305   0.00000   Biso      1.000     C          -0.313279           
         C17       1.0000    0.72840   0.90720   0.58820   Biso      1.000     C          -0.19630899999999998          
         C18       1.0000    0.03460   0.09410   0.46730   Biso      1.000     C          0.361858  
         C19       1.0000    0.50190   0.46730   0.43860   Biso      1.000     C          0.35726199999999997           
         C20       1.0000    0.19690   0.45730   0.35480   Biso      1.000     C          0.603719  
         C21       1.0000    0.08235   0.00000   0.49695   Biso      1.000     C          -0.31326  
         C22       1.0000    0.57930   0.49695   0.50305   Biso      1.000     C          -0.311652           
         C23       1.0000    0.94050   0.90590   0.56140   Biso      1.000     C          0.362904  
         C24       1.0000    0.50190   0.56140   0.53270   Biso      1.000     C          0.357252  
         Co1       1.0000    0.39250   0.57800   0.72050   Biso      1.000     Co          0.984656  
         Co2       1.0000    0.11300   0.29850   0.27950   Biso      1.000     Co          0.985293  
         Co3       1.0000    0.81450   0.42200   0.29850   Biso      1.000     Co          0.985284  
         Co4       1.0000    0.11300   0.72050   0.70150   Biso      1.000     Co          0.985291  
         Co5       1.0000    0.81450   0.70150   0.57800   Biso      1.000     Co          0.9852479999999999  
         Co6       1.0000    0.39250   0.27950   0.42200   Biso      1.000     Co          0.984728  
         H1        1.0000    0.24285   0.00000   0.48045   Biso      1.000     H          0.151248  
         H2        1.0000    0.72330   0.48045   0.51955   Biso      1.000     H          0.150529  
         H3        1.0000    0.53650   0.42850   0.00000   Biso      1.000     H          0.130597  
         H4        1.0000    0.24285   0.51955   0.00000   Biso      1.000     H          0.151249  
         H5        1.0000    0.10800   0.57150   0.42850   Biso      1.000     H          0.130995  
         H6        1.0000    0.53650   0.00000   0.57150   Biso      1.000     H          0.130597  
         O1        1.0000    0.86810   0.27370   0.38380   Biso      1.000     O          -0.584384           
         O2        1.0000    0.25190   0.65750   0.61620   Biso      1.000     O          -0.5808909999999999           
         O3        1.0000    0.36920   0.82120   0.67800   Biso      1.000     O          -0.530329           
         O4        1.0000    0.58010   0.40170   0.41620   Biso      1.000     O          -0.59433  
         O5        1.0000    0.04720   0.49920   0.32200   Biso      1.000     O          -0.528817           
         O6        1.0000    0.36920   0.32200   0.17880   Biso      1.000     O          -0.53028  
         O7        1.0000    0.54800   0.50080   0.82120   Biso      1.000     O          -0.53056  
         O8        1.0000    0.04720   0.67800   0.50080   Biso      1.000     O          -0.528884           
         O9        1.0000    0.17840   0.18210   0.40170   Biso      1.000     O          -0.596028           
         O10       1.0000    0.25190   0.38380   0.34250   Biso      1.000     O          -0.58091  
         O11       1.0000    0.99630   0.81790   0.58380   Biso      1.000     O          -0.596348           
         O12       1.0000    0.59440   0.72630   0.65750   Biso      1.000     O          -0.582796           
         O13       1.0000    0.59440   0.34250   0.27370   Biso      1.000     O          -0.582792           
         O14       1.0000    0.17840   0.59830   0.81790   Biso      1.000     O          -0.596038           
         O15       1.0000    0.54800   0.17880   0.49920   Biso      1.000     O          -0.530512           
         O16       1.0000    0.99630   0.41620   0.18210   Biso      1.000     O          -0.596334           
         O17       1.0000    0.86810   0.61620   0.72630   Biso      1.000     O          -0.584367           
         O18       1.0000    0.58010   0.58380   0.59830   Biso      1.000     O          -0.5942689999999999 