
##########################################################################
#               Crystallographic Information Format file
#               Produced by PyCifRW module
#
#  This is a CIF file.  CIF has been adopted by the International
#  Union of Crystallography as the standard for data archiving and
#  transmission.
#
#  For information on this file format, follow the CIF links at
#  http://www.iucr.org
##########################################################################

data_image0

_cell_length_a                          15.169
_cell_length_b                          15.453
_cell_length_c                          16.4504
_cell_angle_alpha                       67.469
_cell_angle_beta                        80.559
_cell_angle_gamma                       61.982
_symmetry_space_group_name_H-M          'P 1'
_symmetry_int_tables_number             1
loop_
  _symmetry_equiv_pos_as_xyz
         'x, y, z' 
loop_
  _atom_site_label
  _atom_site_occupancy
  _atom_site_fract_x
  _atom_site_fract_y
  _atom_site_fract_z
  _atom_site_thermal_displace_type
  _atom_site_B_iso_or_equiv
  _atom_site_type_symbol
  _atom_site_charge
         C1        1.0000    0.27440   0.17180   0.65884   Biso      1.000     C          -0.049592           
         C2        1.0000    0.21650   0.68110   0.76890   Biso      1.000     C          -0.179381           
         C3        1.0000    0.61950   0.33460   0.92820   Biso      1.000     C          0.526775  
         C4        1.0000    0.32400   0.35830   0.03850   Biso      1.000     C          -0.17496  
         C5        1.0000    0.00880   0.45520   0.18830   Biso      1.000     C          0.589329  
         C6        1.0000    0.23180   0.47100   0.14740   Biso      1.000     C          0.121405  
         C7        1.0000    0.74260   0.75160   0.50200   Biso      1.000     C          -0.041674           
         C8        1.0000    0.90850   0.93520   0.43040   Biso      1.000     C          0.136942  
         C9        1.0000    0.85670   0.48150   0.47090   Biso      1.000     C          0.066474  
         C10       1.0000    0.22620   0.52540   0.05450   Biso      1.000     C          -0.16247  
         C11       1.0000    0.18260   0.83020   0.50100   Biso      1.000     C          -0.18988  
         C12       1.0000    0.88030   0.67370   0.06320   Biso      1.000     C          0.609029  
         C13       1.0000    0.71390   0.37680   0.28350   Biso      1.000     C          0.19825   
         C14       1.0000    0.27240   0.98870   0.56620   Biso      1.000     C          0.085938  
         C15       1.0000    0.00660   0.87200   0.48020   Biso      1.000     C          0.023416  
         C16       1.0000    0.99340   0.12800   0.51980   Biso      1.000     C          0.023416  
         C17       1.0000    0.05360   0.41640   0.96570   Biso      1.000     C          -0.020543           
         C18       1.0000    0.45660   0.60430   0.94100   Biso      1.000     C          -0.045576           
         C19       1.0000    0.35070   0.52020   0.75440   Biso      1.000     C          -0.181243           
         C20       1.0000    0.34560   0.46860   0.84750   Biso      1.000     C          -0.069685           
         C21       1.0000    0.56470   0.41510   0.97090   Biso      1.000     C          -0.013699           
         C22       1.0000    0.94640   0.58360   0.03430   Biso      1.000     C          -0.020542           
         C23       1.0000    0.21770   0.41450   0.66910   Biso      1.000     C          0.110102  
         C24       1.0000    0.18050   0.04900   0.52150   Biso      1.000     C          -0.180222           
         C25       1.0000    0.58290   0.28860   0.13060   Biso      1.000     C          0.55326   
         C26       1.0000    0.55550   0.96410   0.26720   Biso      1.000     C          0.630939  
         C27       1.0000    0.25740   0.24840   0.49800   Biso      1.000     C          -0.041674           
         C28       1.0000    0.65440   0.53140   0.15250   Biso      1.000     C          -0.069688           
         C29       1.0000    0.63990   0.81830   0.51110   Biso      1.000     C          -0.009678           
         C30       1.0000    0.19300   0.96030   0.70420   Biso      1.000     C          0.096471  
         C31       1.0000    0.67600   0.64170   0.96150   Biso      1.000     C          -0.17496  
         C32       1.0000    0.67270   0.57690   0.45560   Biso      1.000     C          0.131826  
         C33       1.0000    0.55940   0.61160   0.58190   Biso      1.000     C          -0.099684           
         C34       1.0000    0.27590   0.52100   0.90170   Biso      1.000     C          0.031791  
         C35       1.0000    0.60580   0.35120   0.50510   Biso      1.000     C          -0.19014  
         C36       1.0000    0.89920   0.98090   0.33890   Biso      1.000     C          -0.175749           
         C37       1.0000    0.59370   0.83030   0.59620   Biso      1.000     C          0.590102  
         C38       1.0000    0.41870   0.11240   0.56830   Biso      1.000     C          -0.149441           
         C39       1.0000    0.10080   0.01910   0.66110   Biso      1.000     C          -0.175746           
         C40       1.0000    0.46650   0.63790   0.62190   Biso      1.000     C          -0.16246  
         C41       1.0000    0.78350   0.31890   0.23110   Biso      1.000     C          -0.179382           
         C42       1.0000    0.52190   0.52130   0.91070   Biso      1.000     C          -0.162489           
         C43       1.0000    0.05210   0.39790   0.05930   Biso      1.000     C          -0.15426  
         C44       1.0000    0.38240   0.65610   0.57920   Biso      1.000     C          0.18842   
         C45       1.0000    0.57330   0.60450   0.49770   Biso      1.000     C          0.027895  
         C46       1.0000    0.81740   0.16980   0.49900   Biso      1.000     C          -0.18988  
         C47       1.0000    0.28610   0.62320   0.71650   Biso      1.000     C          0.198259  
         C48       1.0000    0.38050   0.66540   0.07180   Biso      1.000     C          0.526789  
         C49       1.0000    0.22410   0.17180   0.74470   Biso      1.000     C          0.565959  
         C50       1.0000    0.09180   0.89130   0.45140   Biso      1.000     C          -0.122797           
         C51       1.0000    0.81950   0.95100   0.47850   Biso      1.000     C          -0.180222           
         C52       1.0000    0.19130   0.33680   0.42010   Biso      1.000     C          0.587626  
         C53       1.0000    0.23870   0.49440   0.48930   Biso      1.000     C          -0.185209           
         C54       1.0000    0.64930   0.47980   0.24560   Biso      1.000     C          -0.181234           
         C55       1.0000    0.53350   0.36210   0.37810   Biso      1.000     C          -0.16246  
         C56       1.0000    0.32770   0.30830   0.13120   Biso      1.000     C          0.102476  
         C57       1.0000    0.76820   0.52900   0.85260   Biso      1.000     C          0.121405  
         C58       1.0000    0.51190   0.37450   0.54540   Biso      1.000     C          -0.112349           
         C59       1.0000    0.90820   0.10870   0.54860   Biso      1.000     C          -0.122796           
         C60       1.0000    0.72410   0.47900   0.09830   Biso      1.000     C          0.031791  
         C61       1.0000    0.02110   0.78210   0.55590   Biso      1.000     C          -0.115864           
         C62       1.0000    0.77380   0.47460   0.94550   Biso      1.000     C          -0.16247  
         C63       1.0000    0.58130   0.88760   0.43170   Biso      1.000     C          -0.149441           
         C64       1.0000    0.47810   0.47870   0.08930   Biso      1.000     C          -0.162488           
         C65       1.0000    0.67230   0.69170   0.86880   Biso      1.000     C          0.102476  
         C66       1.0000    0.78680   0.37340   0.13950   Biso      1.000     C          -0.09667  
         C67       1.0000    0.99970   0.51880   0.90870   Biso      1.000     C          -0.042261           
         C68       1.0000    0.11970   0.32630   0.93680   Biso      1.000     C          0.609028  
         C69       1.0000    0.43530   0.58490   0.02910   Biso      1.000     C          -0.013698           
         C70       1.0000    0.97890   0.21790   0.44410   Biso      1.000     C          -0.115865           
         C71       1.0000    0.77590   0.82820   0.25530   Biso      1.000     C          0.56596   
         C72       1.0000    0.32730   0.42310   0.54440   Biso      1.000     C          0.131825  
         C73       1.0000    0.72760   0.01130   0.43380   Biso      1.000     C          0.085939  
         C74       1.0000    0.27480   0.46650   0.99940   Biso      1.000     C          0.152526  
         C75       1.0000    0.80700   0.03970   0.29580   Biso      1.000     C          0.096472  
         C76       1.0000    0.76130   0.50560   0.51070   Biso      1.000     C          -0.185209           
         C77       1.0000    0.61760   0.34390   0.42080   Biso      1.000     C          0.18842   
         C78       1.0000    0.21600   0.24180   0.58100   Biso      1.000     C          -0.122975           
         C79       1.0000    0.44060   0.38840   0.41810   Biso      1.000     C          -0.099684           
         C80       1.0000    0.00030   0.48120   0.09130   Biso      1.000     C          -0.042261           
         C81       1.0000    0.94790   0.60210   0.94070   Biso      1.000     C          -0.15426  
         C82       1.0000    0.39420   0.64880   0.49490   Biso      1.000     C          -0.190141           
         C83       1.0000    0.62120   0.89040   0.34850   Biso      1.000     C          -0.056456           
         C84       1.0000    0.88700   0.28220   0.39880   Biso      1.000     C          -0.179025           
         C85       1.0000    0.44450   0.03590   0.73280   Biso      1.000     C          0.630938  
         C86       1.0000    0.14330   0.51850   0.52910   Biso      1.000     C          0.066473  
         C87       1.0000    0.99120   0.54480   0.81170   Biso      1.000     C          0.589329  
         C88       1.0000    0.68720   0.61160   0.36470   Biso      1.000     C          -0.178902           
         C89       1.0000    0.36010   0.18170   0.48890   Biso      1.000     C          -0.009678           
         C90       1.0000    0.31280   0.38840   0.63530   Biso      1.000     C          -0.1789   
         C91       1.0000    0.40630   0.16970   0.40380   Biso      1.000     C          0.590102  
         C92       1.0000    0.42670   0.39550   0.50230   Biso      1.000     C          0.027895  
         C93       1.0000    0.80870   0.66320   0.57990   Biso      1.000     C          0.587626  
         C94       1.0000    0.11300   0.71780   0.60120   Biso      1.000     C          -0.179024           
         C95       1.0000    0.21320   0.62660   0.86050   Biso      1.000     C          -0.09667  
         C96       1.0000    0.37880   0.10960   0.65150   Biso      1.000     C          -0.056456           
         C97       1.0000    0.78400   0.75820   0.41900   Biso      1.000     C          -0.122975           
         C98       1.0000    0.48810   0.62550   0.45460   Biso      1.000     C          -0.112349           
         C99       1.0000    0.54340   0.39570   0.05900   Biso      1.000     C          -0.045575           
         C100      1.0000    0.72560   0.82820   0.34116   Biso      1.000     C          -0.049592           
         C101      1.0000    0.09150   0.06480   0.56960   Biso      1.000     C          0.136941  
         C102      1.0000    0.72520   0.53350   0.00060   Biso      1.000     C          0.152526  
         C103      1.0000    0.19420   0.74450   0.57320   Biso      1.000     C          0.197187  
         C104      1.0000    0.41710   0.71140   0.86940   Biso      1.000     C          0.553263  
         C105      1.0000    0.78230   0.58550   0.33090   Biso      1.000     C          0.110104  
         C106      1.0000    0.80580   0.25550   0.42680   Biso      1.000     C          0.197187  
         H1        1.0000    0.28820   0.33600   0.23740   Biso      1.000     H          0.303774  
         H2        1.0000    0.12120   0.65780   0.64950   Biso      1.000     H          0.126134  
         H3        1.0000    0.85140   0.71560   0.41470   Biso      1.000     H          0.124029  
         H4        1.0000    0.53710   0.53580   0.85130   Biso      1.000     H          0.126297  
         H5        1.0000    0.65960   0.34080   0.53400   Biso      1.000     H          0.13005   
         H6        1.0000    0.04330   0.02840   0.69420   Biso      1.000     H          0.139851  
         H7        1.0000    0.08580   0.33010   0.09870   Biso      1.000     H          0.132479  
         H8        1.0000    0.78880   0.61140   0.27020   Biso      1.000     H          0.112852  
         H9        1.0000    0.48550   0.06770   0.56420   Biso      1.000     H          0.130651  
         H10       1.0000    0.82520   0.24770   0.25640   Biso      1.000     H          0.128115  
         H11       1.0000    0.33040   0.97880   0.53370   Biso      1.000     H          0.101536  
         H12       1.0000    0.51450   0.93230   0.43580   Biso      1.000     H          0.13065   
         H13       1.0000    0.54020   0.35650   0.32290   Biso      1.000     H          0.132636  
         H14       1.0000    0.46290   0.46420   0.14870   Biso      1.000     H          0.126297  
         H15       1.0000    0.39730   0.48370   0.72050   Biso      1.000     H          0.134681  
         H16       1.0000    0.63930   0.76430   0.84340   Biso      1.000     H          0.099382  
         H17       1.0000    0.03190   0.23460   0.42390   Biso      1.000     H          0.122704  
         H18       1.0000    0.91420   0.66990   0.90130   Biso      1.000     H          0.13248   
         H19       1.0000    0.08770   0.94550   0.39890   Biso      1.000     H          0.118122  
         H20       1.0000    0.71180   0.66400   0.76260   Biso      1.000     H          0.303774  
         H21       1.0000    0.08630   0.56430   0.49360   Biso      1.000     H          0.101453  
         H22       1.0000    0.38610   0.40180   0.38810   Biso      1.000     H          0.118121  
         H23       1.0000    0.80080   0.49150   0.81520   Biso      1.000     H          0.118539  
         H24       1.0000    0.76540   0.15110   0.51620   Biso      1.000     H          0.128402  
         H25       1.0000    0.91370   0.43570   0.50640   Biso      1.000     H          0.101453  
         H26       1.0000    0.17780   0.07850   0.46040   Biso      1.000     H          0.144986  
         H27       1.0000    0.17480   0.75230   0.74360   Biso      1.000     H          0.128115  
         H28       1.0000    0.38960   0.39820   0.87300   Biso      1.000     H          0.121797  
         H29       1.0000    0.50560   0.37620   0.60210   Biso      1.000     H          0.123266  
         H30       1.0000    0.83320   0.33680   0.10560   Biso      1.000     H          0.119465  
         H31       1.0000    0.19650   0.93190   0.76530   Biso      1.000     H          0.119683  
         H32       1.0000    0.35520   0.31770   0.00320   Biso      1.000     H          0.148713  
         H33       1.0000    0.24380   0.52410   0.42880   Biso      1.000     H          0.146385  
         H34       1.0000    0.45980   0.64350   0.67710   Biso      1.000     H          0.132636  
         H35       1.0000    0.75620   0.47590   0.57120   Biso      1.000     H          0.146384  
         H36       1.0000    0.21120   0.38860   0.72980   Biso      1.000     H          0.112852  
         H37       1.0000    0.50660   0.08820   0.19060   Biso      1.000     H          0.448217  
         H38       1.0000    0.61040   0.60180   0.12700   Biso      1.000     H          0.121797  
         H39       1.0000    0.66960   0.02120   0.46630   Biso      1.000     H          0.101536  
         H40       1.0000    0.36790   0.34720   0.67360   Biso      1.000     H          0.146693  
         H41       1.0000    0.23460   0.84890   0.48380   Biso      1.000     H          0.128403  
         H42       1.0000    0.19120   0.59800   0.03100   Biso      1.000     H          0.155622  
         H43       1.0000    0.80350   0.06810   0.23470   Biso      1.000     H          0.119685  
         H44       1.0000    0.82220   0.92150   0.53960   Biso      1.000     H          0.144987  
         H45       1.0000    0.36070   0.23570   0.15660   Biso      1.000     H          0.099381  
         H46       1.0000    0.91230   0.05450   0.60110   Biso      1.000     H          0.118119  
         H47       1.0000    0.96810   0.76540   0.57610   Biso      1.000     H          0.122704  
         H48       1.0000    0.16680   0.66320   0.89440   Biso      1.000     H          0.119465  
         H49       1.0000    0.19920   0.50850   0.18480   Biso      1.000     H          0.118538  
         H50       1.0000    0.34040   0.65920   0.46600   Biso      1.000     H          0.130051  
         H51       1.0000    0.80880   0.40200   0.96900   Biso      1.000     H          0.155622  
         H52       1.0000    0.61390   0.59820   0.61190   Biso      1.000     H          0.118122  
         H53       1.0000    0.95670   0.97160   0.30580   Biso      1.000     H          0.139856  
         H54       1.0000    0.49440   0.62380   0.39790   Biso      1.000     H          0.123266  
         H55       1.0000    0.64480   0.68230   0.99680   Biso      1.000     H          0.148714  
         H56       1.0000    0.87880   0.34220   0.35050   Biso      1.000     H          0.126133  
         H57       1.0000    0.14860   0.28440   0.58530   Biso      1.000     H          0.12403   
         H58       1.0000    0.63210   0.65280   0.32640   Biso      1.000     H          0.146693  
         H59       1.0000    0.49340   0.91180   0.80940   Biso      1.000     H          0.448217  
         H60       1.0000    0.60270   0.51630   0.27950   Biso      1.000     H          0.13468   
         N1        1.0000    0.28750   0.67810   0.62361   Biso      1.000     N          -0.175704           
         N2        1.0000    0.13290   0.47660   0.61763   Biso      1.000     N          -0.26209  
         N3        1.0000    0.86710   0.52340   0.38237   Biso      1.000     N          -0.26209  
         N4        1.0000    0.28360   0.36640   0.18115   Biso      1.000     N          -0.135242           
         N5        1.0000    0.71640   0.63360   0.81885   Biso      1.000     N          -0.135242           
         N6        1.0000    0.71930   0.05630   0.34406   Biso      1.000     N          -0.267349           
         N7        1.0000    0.28070   0.94370   0.65594   Biso      1.000     N          -0.267351           
         N8        1.0000    0.71250   0.32190   0.37639   Biso      1.000     N          -0.175703           
         O1        1.0000    0.45515   0.94473   0.76422   Biso      1.000     O          -0.467933           
         O2        1.0000    0.65930   0.21231   0.11642   Biso      1.000     O          -0.517631           
         O3        1.0000    0.49595   0.06574   0.75795   Biso      1.000     O          -0.48396  
         O4        1.0000    0.80267   0.67813   0.10546   Biso      1.000     O          -0.563671           
         O5        1.0000    0.50405   0.93426   0.24205   Biso      1.000     O          -0.483955           
         O6        1.0000    0.09851   0.36601   0.43118   Biso      1.000     O          -0.552455           
         O7        1.0000    0.77387   0.61827   0.64764   Biso      1.000     O          -0.572146           
         O8        1.0000    0.64353   0.82304   0.65346   Biso      1.000     O          -0.571933           
         O9        1.0000    0.50319   0.84662   0.60194   Biso      1.000     O          -0.557232           
         O10       1.0000    0.35647   0.17696   0.34654   Biso      1.000     O          -0.571934           
         O11       1.0000    0.30260   0.74335   0.03462   Biso      1.000     O          -0.48581  
         O12       1.0000    0.46531   0.72204   0.79844   Biso      1.000     O          -0.574781           
         O13       1.0000    0.86927   0.78346   0.24914   Biso      1.000     O          -0.550159           
         O14       1.0000    0.69740   0.25665   0.96538   Biso      1.000     O          -0.48581  
         O15       1.0000    0.09574   0.25282   0.95842   Biso      1.000     O          -0.542999           
         O16       1.0000    0.19733   0.32187   0.89454   Biso      1.000     O          -0.563661           
         O17       1.0000    0.28048   0.11874   0.81298   Biso      1.000     O          -0.52768  
         O18       1.0000    0.13073   0.21654   0.75086   Biso      1.000     O          -0.550148           
         O19       1.0000    0.42083   0.65436   0.13895   Biso      1.000     O          -0.574574           
         O20       1.0000    0.54485   0.05527   0.23578   Biso      1.000     O          -0.467932           
         O21       1.0000    0.71952   0.88126   0.18702   Biso      1.000     O          -0.527696           
         O22       1.0000    0.22613   0.38173   0.35236   Biso      1.000     O          -0.572146           
         O23       1.0000    0.90149   0.63399   0.56882   Biso      1.000     O          -0.552456           
         O24       1.0000    0.90426   0.74718   0.04158   Biso      1.000     O          -0.543014           
         O25       1.0000    0.99980   0.52965   0.20821   Biso      1.000     O          -0.557489           
         O26       1.0000    0.34070   0.78769   0.88358   Biso      1.000     O          -0.517635           
         O27       1.0000    0.49681   0.15338   0.39806   Biso      1.000     O          -0.557232           
         O28       1.0000    0.53469   0.27796   0.20156   Biso      1.000     O          -0.574782           
         O29       1.0000    0.57917   0.34564   0.86105   Biso      1.000     O          -0.574566           
         O30       1.0000    0.00020   0.47035   0.79179   Biso      1.000     O          -0.557488           
         O31       1.0000    0.97366   0.63201   0.75619   Biso      1.000     O          -0.55562  
         O32       1.0000    0.02634   0.36799   0.24381   Biso      1.000     O          -0.55562  
         Zn1       1.0000    0.42293   0.86626   0.71017   Biso      1.000     Zn          0.830064  
         Zn2       1.0000    0.81272   0.86433   0.08376   Biso      1.000     Zn          0.781292  
         Zn3       1.0000    0.57707   0.13374   0.28983   Biso      1.000     Zn          0.830063  
         Zn4       1.0000    0.01026   0.49186   0.33552   Biso      1.000     Zn          0.881665  
         Zn5       1.0000    0.18728   0.13567   0.91624   Biso      1.000     Zn          0.781246  
         Zn6       1.0000    0.98974   0.50814   0.66448   Biso      1.000     Zn          0.881665 