
##########################################################################
#               Crystallographic Information Format file
#               Produced by PyCifRW module
#
#  This is a CIF file.  CIF has been adopted by the International
#  Union of Crystallography as the standard for data archiving and
#  transmission.
#
#  For information on this file format, follow the CIF links at
#  http://www.iucr.org
##########################################################################

data_image0

_cell_length_a                          9.7918
_cell_length_b                          9.9454
_cell_length_c                          12.7361
_cell_angle_alpha                       84.216
_cell_angle_beta                        76.642
_cell_angle_gamma                       64.07
_symmetry_space_group_name_H-M          'P 1'
_symmetry_int_tables_number             1
loop_
  _symmetry_equiv_pos_as_xyz
         'x, y, z' 
loop_
  _atom_site_label
  _atom_site_occupancy
  _atom_site_fract_x
  _atom_site_fract_y
  _atom_site_fract_z
  _atom_site_thermal_displace_type
  _atom_site_B_iso_or_equiv
  _atom_site_type_symbol
  _atom_site_charge
         C1        1.0000    0.90120   0.62210   0.06760   Biso      1.000     C          -0.007248           
         C2        1.0000    0.48130   0.56000   0.59810   Biso      1.000     C          -0.080749           
         C3        1.0000    0.52260   0.57600   0.40490   Biso      1.000     C          -0.089281           
         C4        1.0000    0.39320   0.54970   0.93310   Biso      1.000     C          -0.094519           
         C5        1.0000    0.60680   0.45030   0.06690   Biso      1.000     C          -0.094814           
         C6        1.0000    0.41610   0.42020   0.99490   Biso      1.000     C          -0.10962999999999999          
         C7        1.0000    0.54040   0.23270   0.12990   Biso      1.000     C          0.595141  
         C8        1.0000    0.52190   0.37100   0.06170   Biso      1.000     C          -0.011752           
         C9        1.0000    0.21150   0.24810   0.85970   Biso      1.000     C          0.5740930000000001  
         C10       1.0000    0.95910   0.47710   0.10870   Biso      1.000     C          -0.0996   
         C11       1.0000    0.09880   0.37790   0.93240   Biso      1.000     C          -0.0063560000000000005        
         C12       1.0000    0.94280   0.64430   0.95930   Biso      1.000     C          -0.100194           
         C13       1.0000    0.50780   0.78470   0.50770   Biso      1.000     C          0.708522  
         C14       1.0000    0.78850   0.75190   0.14030   Biso      1.000     C          0.5728489999999999  
         C15       1.0000    0.50450   0.63650   0.50320   Biso      1.000     C          -0.025197999999999998         
         C16       1.0000    0.47740   0.42400   0.59510   Biso      1.000     C          -0.088437           
         C17       1.0000    0.51870   0.44000   0.40190   Biso      1.000     C          -0.08248899999999999          
         C18       1.0000    0.49220   0.21530   0.49230   Biso      1.000     C          0.7079    
         C19       1.0000    0.49550   0.36350   0.49680   Biso      1.000     C          -0.024618           
         C20       1.0000    0.04090   0.52290   0.89130   Biso      1.000     C          -0.098875           
         C21       1.0000    0.47810   0.62900   0.93830   Biso      1.000     C          -0.010818000000000001         
         C22       1.0000    0.05720   0.35570   0.04070   Biso      1.000     C          -0.100365           
         C23       1.0000    0.45960   0.76730   0.87010   Biso      1.000     C          0.595213  
         C24       1.0000    0.58390   0.57980   0.00510   Biso      1.000     C          -0.109929           
         Cl1       1.0000    0.81630   0.92500   0.35229   Biso      1.000     Cl          -0.5164380000000001           
         Cl2       1.0000    0.18370   0.07500   0.64771   Biso      1.000     Cl          -0.522241           
         H1        1.0000    0.46830   0.60110   0.66420   Biso      1.000     H          0.121404  
         H2        1.0000    0.53740   0.62720   0.34120   Biso      1.000     H          0.114078  
         H3        1.0000    0.06810   0.53880   0.81780   Biso      1.000     H          0.12754100000000002           
         H4        1.0000    0.09460   0.25950   0.06900   Biso      1.000     H          0.128361  
         H5        1.0000    0.64020   0.63340   0.00890   Biso      1.000     H          0.109295  
         H6        1.0000    0.67860   0.41750   0.11120   Biso      1.000     H          0.12061400000000001           
         H7        1.0000    0.32140   0.58250   0.88880   Biso      1.000     H          0.120897  
         H8        1.0000    0.46260   0.37280   0.65880   Biso      1.000     H          0.114554  
         H9        1.0000    0.35980   0.36660   0.99110   Biso      1.000     H          0.10937100000000001           
         H10       1.0000    0.93190   0.46120   0.18220   Biso      1.000     H          0.127275  
         H11       1.0000    0.90540   0.74050   0.93100   Biso      1.000     H          0.12825799999999998           
         H12       1.0000    0.53170   0.39890   0.33580   Biso      1.000     H          0.121049  
         O1        1.0000    0.64300   0.18580   0.18800   Biso      1.000     O          -0.573237           
         O2        1.0000    0.46030   0.16720   0.12830   Biso      1.000     O          -0.603043           
         O3        1.0000    0.47720   0.17860   0.40530   Biso      1.000     O          -0.633726           
         O4        1.0000    0.73350   0.72210   0.23630   Biso      1.000     O          -0.603888           
         O5        1.0000    0.74960   0.88010   0.10680   Biso      1.000     O          -0.561541           
         O6        1.0000    0.50290   0.13600   0.57600   Biso      1.000     O          -0.664028           
         O7        1.0000    0.49710   0.86400   0.42400   Biso      1.000     O          -0.659022           
         O8        1.0000    0.35700   0.81420   0.81200   Biso      1.000     O          -0.578521           
         O9        1.0000    0.53970   0.83280   0.87170   Biso      1.000     O          -0.605503           
         O10       1.0000    0.52280   0.82140   0.59470   Biso      1.000     O          -0.6361979999999999           
         O11       1.0000    0.26650   0.27790   0.76370   Biso      1.000     O          -0.611167           
         O12       1.0000    0.25040   0.11990   0.89320   Biso      1.000     O          -0.562198           
         U1        1.0000    0.44052   0.00833   0.72511   Biso      1.000     U          2.187247  
         U2        1.0000    0.55948   0.99167   0.27489   Biso      1.000     U          2.181959 