
##########################################################################
#               Crystallographic Information Format file
#               Produced by PyCifRW module
#
#  This is a CIF file.  CIF has been adopted by the International
#  Union of Crystallography as the standard for data archiving and
#  transmission.
#
#  For information on this file format, follow the CIF links at
#  http://www.iucr.org
##########################################################################

data_image0

_cell_length_a                          15.217
_cell_length_b                          9.8509
_cell_length_c                          18.2741
_cell_angle_alpha                       90
_cell_angle_beta                        102.036
_cell_angle_gamma                       90
_symmetry_space_group_name_H-M          'P 1'
_symmetry_int_tables_number             1
loop_
  _symmetry_equiv_pos_as_xyz
         'x, y, z' 
loop_
  _atom_site_label
  _atom_site_occupancy
  _atom_site_fract_x
  _atom_site_fract_y
  _atom_site_fract_z
  _atom_site_thermal_displace_type
  _atom_site_B_iso_or_equiv
  _atom_site_type_symbol
  _atom_site_charge
         C1        1.0000    0.62250   0.84440   0.42530   Biso      1.000     C          0.48704899999999995           
         C2        1.0000    0.95200   0.88280   0.00870   Biso      1.000     C          -0.004035           
         C3        1.0000    0.62250   0.65560   0.92530   Biso      1.000     C          0.48704899999999995           
         C4        1.0000    0.77650   0.23240   0.25080   Biso      1.000     C          -0.11639000000000001          
         C5        1.0000    0.77840   0.30240   0.18560   Biso      1.000     C          -0.119032           
         C6        1.0000    0.89420   0.73720   0.51550   Biso      1.000     C          0.583288  
         C7        1.0000    0.95200   0.61720   0.50870   Biso      1.000     C          -0.004033           
         C8        1.0000    0.99090   0.60280   0.44750   Biso      1.000     C          -0.101714           
         C9        1.0000    0.93630   0.24780   0.28690   Biso      1.000     C          -0.095475           
         C10       1.0000    0.03860   0.48670   0.43860   Biso      1.000     C          -0.10065299999999999          
         C11       1.0000    0.85430   0.37200   0.87340   Biso      1.000     C          0.613139  
         C12       1.0000    0.85430   0.29570   0.80190   Biso      1.000     C          -0.018167           
         C13       1.0000    0.86410   0.08510   0.59800   Biso      1.000     C          0.616125  
         C14       1.0000    0.85970   0.15650   0.66960   Biso      1.000     C          -0.018668           
         C15       1.0000    0.93800   0.18510   0.72110   Biso      1.000     C          -0.09715  
         C16       1.0000    0.93800   0.31490   0.22110   Biso      1.000     C          -0.097148           
         C17       1.0000    0.93630   0.25220   0.78690   Biso      1.000     C          -0.095472           
         C18       1.0000    0.85970   0.34350   0.16960   Biso      1.000     C          -0.018668           
         C19       1.0000    0.77840   0.19760   0.68560   Biso      1.000     C          -0.11903499999999999          
         C20       1.0000    0.86410   0.41490   0.09800   Biso      1.000     C          0.616125  
         C21       1.0000    0.77650   0.26760   0.75080   Biso      1.000     C          -0.11638599999999999          
         C22       1.0000    0.85430   0.20430   0.30190   Biso      1.000     C          -0.018165           
         C23       1.0000    0.22350   0.73240   0.24920   Biso      1.000     C          -0.11639100000000001          
         C24       1.0000    0.85430   0.12800   0.37340   Biso      1.000     C          0.613139  
         C25       1.0000    0.03860   0.01330   0.93860   Biso      1.000     C          -0.100655           
         C26       1.0000    0.99090   0.89720   0.94750   Biso      1.000     C          -0.101711           
         C27       1.0000    0.37750   0.15560   0.57470   Biso      1.000     C          0.48704899999999995           
         C28       1.0000    0.10580   0.26280   0.48450   Biso      1.000     C          0.5832890000000001  
         C29       1.0000    0.89420   0.76280   0.01550   Biso      1.000     C          0.583292  
         C30       1.0000    0.37750   0.34440   0.07470   Biso      1.000     C          0.48704899999999995           
         C31       1.0000    0.22160   0.80240   0.31440   Biso      1.000     C          -0.119032           
         C32       1.0000    0.06370   0.74780   0.21310   Biso      1.000     C          -0.095475           
         C33       1.0000    0.06200   0.81490   0.27890   Biso      1.000     C          -0.097148           
         C34       1.0000    0.14030   0.84350   0.33040   Biso      1.000     C          -0.018668           
         C35       1.0000    0.13590   0.91490   0.40200   Biso      1.000     C          0.616125  
         C36       1.0000    0.10580   0.23720   0.98450   Biso      1.000     C          0.583291  
         C37       1.0000    0.04800   0.11720   0.99130   Biso      1.000     C          -0.004035           
         C38       1.0000    0.00910   0.10280   0.05250   Biso      1.000     C          -0.101712           
         C39       1.0000    0.14570   0.70430   0.19810   Biso      1.000     C          -0.018164           
         C40       1.0000    0.96140   0.98670   0.06140   Biso      1.000     C          -0.100654           
         C41       1.0000    0.04800   0.38280   0.49130   Biso      1.000     C          -0.004033           
         C42       1.0000    0.14570   0.87200   0.62660   Biso      1.000     C          0.613139  
         C43       1.0000    0.14570   0.79570   0.69810   Biso      1.000     C          -0.018168           
         C44       1.0000    0.14570   0.62800   0.12660   Biso      1.000     C          0.613138  
         C45       1.0000    0.13590   0.58510   0.90200   Biso      1.000     C          0.616125  
         C46       1.0000    0.14030   0.65650   0.83040   Biso      1.000     C          -0.018668           
         C47       1.0000    0.06200   0.68510   0.77890   Biso      1.000     C          -0.09715  
         C48       1.0000    0.06370   0.75220   0.71310   Biso      1.000     C          -0.095472           
         C49       1.0000    0.96140   0.51330   0.56140   Biso      1.000     C          -0.10065299999999999          
         C50       1.0000    0.00910   0.39720   0.55250   Biso      1.000     C          -0.101713           
         C51       1.0000    0.22160   0.69760   0.81440   Biso      1.000     C          -0.11903499999999999          
         C52       1.0000    0.22350   0.76760   0.74920   Biso      1.000     C          -0.11638599999999999          
         H1        1.0000    0.27620   0.82270   0.34840   Biso      1.000     H          0.098729  
         H2        1.0000    0.98480   0.82700   0.91120   Biso      1.000     H          0.119719  
         H3        1.0000    0.06520   0.02230   0.89620   Biso      1.000     H          0.11733199999999999           
         H4        1.0000    0.00930   0.73100   0.17800   Biso      1.000     H          0.12244100000000001           
         H5        1.0000    0.72050   0.20310   0.26040   Biso      1.000     H          0.107155  
         H6        1.0000    0.01520   0.32700   0.58880   Biso      1.000     H          0.119719  
         H7        1.0000    0.99400   0.34210   0.21070   Biso      1.000     H          0.122721  
         H8        1.0000    0.72380   0.32270   0.15160   Biso      1.000     H          0.098728  
         H9        1.0000    0.99070   0.23100   0.32200   Biso      1.000     H          0.12244100000000001           
         H10       1.0000    0.93480   0.52230   0.60380   Biso      1.000     H          0.11733199999999999           
         H11       1.0000    0.00600   0.84210   0.28930   Biso      1.000     H          0.122721  
         H12       1.0000    0.57050   0.70610   0.90350   Biso      1.000     H          0.033477  
         H13       1.0000    0.27950   0.70310   0.23960   Biso      1.000     H          0.107155  
         H14       1.0000    0.06520   0.47770   0.39620   Biso      1.000     H          0.11733199999999999           
         H15       1.0000    0.42950   0.29390   0.09650   Biso      1.000     H          0.033477999999999994          
         H16       1.0000    0.27950   0.79690   0.73960   Biso      1.000     H          0.107154  
         H17       1.0000    0.27620   0.67730   0.84840   Biso      1.000     H          0.098729  
         H18       1.0000    0.00930   0.76900   0.67800   Biso      1.000     H          0.12244100000000001           
         H19       1.0000    0.42950   0.20610   0.59650   Biso      1.000     H          0.033477999999999994          
         H20       1.0000    0.00600   0.65790   0.78930   Biso      1.000     H          0.122721  
         H21       1.0000    0.57050   0.79390   0.40350   Biso      1.000     H          0.033477999999999994          
         H22       1.0000    0.72050   0.29690   0.76040   Biso      1.000     H          0.107154  
         H23       1.0000    0.72380   0.17730   0.65160   Biso      1.000     H          0.098729  
         H24       1.0000    0.99070   0.26900   0.82200   Biso      1.000     H          0.12244100000000001           
         H25       1.0000    0.99400   0.15790   0.71070   Biso      1.000     H          0.122721  
         H26       1.0000    0.93480   0.97770   0.10380   Biso      1.000     H          0.11733199999999999           
         H27       1.0000    0.98480   0.67300   0.41120   Biso      1.000     H          0.119719  
         H28       1.0000    0.01520   0.17300   0.08880   Biso      1.000     H          0.119719  
         O1        1.0000    0.38602   0.05850   0.53364   Biso      1.000     O          -0.47283800000000004          
         O2        1.0000    0.94022   0.43260   0.08474   Biso      1.000     O          -0.545639           
         O3        1.0000    0.05978   0.56740   0.91526   Biso      1.000     O          -0.545639           
         O4        1.0000    0.05978   0.93260   0.41526   Biso      1.000     O          -0.545638           
         O5        1.0000    0.16060   0.23310   0.94350   Biso      1.000     O          -0.511126           
         O6        1.0000    0.30410   0.30960   0.08889   Biso      1.000     O          -0.377795           
         O7        1.0000    0.20981   0.55040   0.94403   Biso      1.000     O          -0.5844590000000001           
         O8        1.0000    0.21854   0.92800   0.62005   Biso      1.000     O          -0.5731649999999999           
         O9        1.0000    0.07380   0.87470   0.57872   Biso      1.000     O          -0.558958           
         O10       1.0000    0.09974   0.34120   0.02796   Biso      1.000     O          -0.5982729999999999           
         O11       1.0000    0.38602   0.44150   0.03364   Biso      1.000     O          -0.472833           
         O12       1.0000    0.16060   0.26690   0.44350   Biso      1.000     O          -0.511127           
         O13       1.0000    0.07380   0.62530   0.07872   Biso      1.000     O          -0.558958           
         O14       1.0000    0.20981   0.94960   0.44403   Biso      1.000     O          -0.5844590000000001           
         O15       1.0000    0.61398   0.55850   0.96636   Biso      1.000     O          -0.472833           
         O16       1.0000    0.69590   0.69040   0.91111   Biso      1.000     O          -0.377795           
         O17       1.0000    0.79019   0.44960   0.05597   Biso      1.000     O          -0.5844590000000001           
         O18       1.0000    0.78146   0.07200   0.37995   Biso      1.000     O          -0.5731649999999999           
         O19       1.0000    0.92620   0.12530   0.42128   Biso      1.000     O          -0.5589569999999999           
         O20       1.0000    0.61398   0.94150   0.46636   Biso      1.000     O          -0.472839           
         O21       1.0000    0.94022   0.06740   0.58474   Biso      1.000     O          -0.545638           
         O22       1.0000    0.30410   0.19040   0.58889   Biso      1.000     O          -0.377795           
         O23       1.0000    0.83940   0.73310   0.55650   Biso      1.000     O          -0.511125           
         O24       1.0000    0.79019   0.05040   0.55597   Biso      1.000     O          -0.5844590000000001           
         O25       1.0000    0.78146   0.42800   0.87995   Biso      1.000     O          -0.5731649999999999           
         O26       1.0000    0.92620   0.37470   0.92128   Biso      1.000     O          -0.558958           
         O27       1.0000    0.90026   0.84120   0.47204   Biso      1.000     O          -0.598274           
         O28       1.0000    0.09974   0.15880   0.52796   Biso      1.000     O          -0.598275           
         O29       1.0000    0.83940   0.76690   0.05650   Biso      1.000     O          -0.511128           
         O30       1.0000    0.21854   0.57200   0.12005   Biso      1.000     O          -0.5731649999999999           
         O31       1.0000    0.69590   0.80960   0.41111   Biso      1.000     O          -0.377796           
         O32       1.0000    0.90026   0.65880   0.97204   Biso      1.000     O          -0.598274           
         Zn1       1.0000    0.00000   0.50000   0.00000   Biso      1.000     Zn          1.033296  
         Zn2       1.0000    0.00000   0.00000   0.50000   Biso      1.000     Zn          1.033298  
         Zn3       1.0000    0.21360   0.44449   0.03534   Biso      1.000     Zn          0.921925  
         Zn4       1.0000    0.50000   0.50000   0.00000   Biso      1.000     Zn          0.867552  
         Zn5       1.0000    0.78640   0.55551   0.96466   Biso      1.000     Zn          0.921925  
         Zn6       1.0000    0.78640   0.94449   0.46466   Biso      1.000     Zn          0.921924  
         Zn7       1.0000    0.21360   0.05551   0.53534   Biso      1.000     Zn          0.9219229999999999  
         Zn8       1.0000    0.50000   0.00000   0.50000   Biso      1.000     Zn          0.8675709999999999 