
##########################################################################
#               Crystallographic Information Format file
#               Produced by PyCifRW module
#
#  This is a CIF file.  CIF has been adopted by the International
#  Union of Crystallography as the standard for data archiving and
#  transmission.
#
#  For information on this file format, follow the CIF links at
#  http://www.iucr.org
##########################################################################

data_image0

_cell_length_a                          13.3503
_cell_length_b                          13.3503
_cell_length_c                          14.3853
_cell_angle_alpha                       90
_cell_angle_beta                        90
_cell_angle_gamma                       120
_symmetry_space_group_name_H-M          'P 1'
_symmetry_int_tables_number             1
loop_
  _symmetry_equiv_pos_as_xyz
         'x, y, z' 
loop_
  _atom_site_label
  _atom_site_occupancy
  _atom_site_fract_x
  _atom_site_fract_y
  _atom_site_fract_z
  _atom_site_thermal_displace_type
  _atom_site_B_iso_or_equiv
  _atom_site_type_symbol
  _atom_site_charge
         C1        1.0000    0.56290   0.12630   0.33910   Biso      1.000     C          0.6912560000000001  
         C2        1.0000    0.90180   0.25350   0.01020   Biso      1.000     C          -0.225777           
         C3        1.0000    0.81500   0.26830   0.06990   Biso      1.000     C          0.645822  
         C4        1.0000    0.88280   0.55210   0.35950   Biso      1.000     C          -0.245736           
         C5        1.0000    0.87370   0.43660   0.33910   Biso      1.000     C          0.691272  
         C6        1.0000    0.90180   0.64830   0.51020   Biso      1.000     C          -0.22577399999999997          
         C7        1.0000    0.81500   0.54670   0.56990   Biso      1.000     C          0.645821  
         C8        1.0000    0.66930   0.11720   0.35950   Biso      1.000     C          -0.245732           
         C9        1.0000    0.74650   0.09820   0.51020   Biso      1.000     C          -0.225775           
         C10       1.0000    0.73170   0.18500   0.56990   Biso      1.000     C          0.64582   
         C11       1.0000    0.44790   0.33070   0.35950   Biso      1.000     C          -0.24573299999999998          
         C12       1.0000    0.56340   0.43710   0.33910   Biso      1.000     C          0.691281  
         C13       1.0000    0.35170   0.25350   0.51020   Biso      1.000     C          -0.22578  
         C14       1.0000    0.45330   0.26830   0.56990   Biso      1.000     C          0.6458229999999999  
         C15       1.0000    0.33070   0.44790   0.14050   Biso      1.000     C          -0.245736           
         C16       1.0000    0.43710   0.56340   0.16090   Biso      1.000     C          0.6912729999999999  
         C17       1.0000    0.25350   0.35170   0.98980   Biso      1.000     C          -0.225777           
         C18       1.0000    0.26830   0.45330   0.93010   Biso      1.000     C          0.645822  
         C19       1.0000    0.55210   0.88280   0.14050   Biso      1.000     C          -0.245732           
         C20       1.0000    0.43660   0.87370   0.16090   Biso      1.000     C          0.691257  
         C21       1.0000    0.64830   0.90180   0.98980   Biso      1.000     C          -0.225777           
         C22       1.0000    0.54670   0.81500   0.93010   Biso      1.000     C          0.645821  
         C23       1.0000    0.11720   0.66930   0.14050   Biso      1.000     C          -0.245731           
         C24       1.0000    0.12630   0.56290   0.16090   Biso      1.000     C          0.69128   
         C25       1.0000    0.87370   0.43710   0.83910   Biso      1.000     C          0.69128   
         C26       1.0000    0.88280   0.33070   0.85950   Biso      1.000     C          -0.245731           
         C27       1.0000    0.45330   0.18500   0.06990   Biso      1.000     C          0.645822  
         C28       1.0000    0.35170   0.09820   0.01020   Biso      1.000     C          -0.225779           
         C29       1.0000    0.11720   0.44790   0.64050   Biso      1.000     C          -0.245736           
         C30       1.0000    0.12630   0.56340   0.66090   Biso      1.000     C          0.691272  
         C31       1.0000    0.09820   0.35170   0.48980   Biso      1.000     C          -0.225777           
         C32       1.0000    0.18500   0.45330   0.43010   Biso      1.000     C          0.645822  
         C33       1.0000    0.33070   0.88280   0.64050   Biso      1.000     C          -0.24573299999999998          
         C34       1.0000    0.09820   0.74650   0.98980   Biso      1.000     C          -0.225779           
         C35       1.0000    0.25350   0.90180   0.48980   Biso      1.000     C          -0.225778           
         C36       1.0000    0.26830   0.81500   0.43010   Biso      1.000     C          0.645821  
         C37       1.0000    0.55210   0.66930   0.64050   Biso      1.000     C          -0.245732           
         C38       1.0000    0.43710   0.87370   0.66090   Biso      1.000     C          0.691257  
         C39       1.0000    0.64830   0.74650   0.48980   Biso      1.000     C          -0.225775           
         C40       1.0000    0.54670   0.73170   0.43010   Biso      1.000     C          0.645822  
         C41       1.0000    0.66930   0.55210   0.85950   Biso      1.000     C          -0.24573499999999998          
         C42       1.0000    0.56290   0.43660   0.83910   Biso      1.000     C          0.6912729999999999  
         C43       1.0000    0.74650   0.64830   0.01020   Biso      1.000     C          -0.22577600000000003          
         C44       1.0000    0.73170   0.54670   0.06990   Biso      1.000     C          0.645822  
         C45       1.0000    0.44790   0.11720   0.85950   Biso      1.000     C          -0.245734           
         C46       1.0000    0.56340   0.12630   0.83910   Biso      1.000     C          0.691257  
         C47       1.0000    0.43660   0.56290   0.66090   Biso      1.000     C          0.691281  
         C48       1.0000    0.18500   0.73170   0.93010   Biso      1.000     C          0.6458229999999999  
         Cu1       1.0000    0.00000   0.50000   0.50000   Biso      1.000     Cu          0.7858149999999999  
         Cu2       1.0000    0.50000   0.00000   0.50000   Biso      1.000     Cu          0.785812  
         Cu3       1.0000    0.50000   0.50000   0.50000   Biso      1.000     Cu          0.785813  
         Cu4       1.0000    0.50000   0.50000   0.00000   Biso      1.000     Cu          0.785813  
         Cu5       1.0000    0.50000   0.00000   0.00000   Biso      1.000     Cu          0.7858109999999999  
         Cu6       1.0000    0.00000   0.50000   0.00000   Biso      1.000     Cu          0.785812  
         Dy1       1.0000    0.33333   0.66666   0.83250   Biso      1.000     Dy          2.075694  
         Dy2       1.0000    0.66667   0.33334   0.16750   Biso      1.000     Dy          2.075694  
         Dy3       1.0000    0.66667   0.33334   0.66750   Biso      1.000     Dy          2.075691  
         Dy4       1.0000    0.33333   0.66666   0.33250   Biso      1.000     Dy          2.0756919999999996  
         H1        1.0000    0.73430   0.19400   0.37100   Biso      1.000     H          0.148945  
         H2        1.0000    0.68760   0.08580   0.30560   Biso      1.000     H          0.146634  
         H3        1.0000    0.74700   0.03980   0.55000   Biso      1.000     H          0.139482  
         H4        1.0000    0.82020   0.13800   0.47810   Biso      1.000     H          0.12535   
         H5        1.0000    0.64980   0.97620   0.42160   Biso      1.000     H          0.258069  
         H6        1.0000    0.45970   0.26570   0.37100   Biso      1.000     H          0.148955  
         H7        1.0000    0.39820   0.31240   0.30560   Biso      1.000     H          0.146645  
         H8        1.0000    0.29280   0.25300   0.55000   Biso      1.000     H          0.139503  
         H9        1.0000    0.31780   0.17980   0.47810   Biso      1.000     H          0.125367  
         H10       1.0000    0.32640   0.35020   0.42160   Biso      1.000     H          0.258073  
         H11       1.0000    0.26570   0.45970   0.12900   Biso      1.000     H          0.148952  
         H12       1.0000    0.31240   0.39820   0.19440   Biso      1.000     H          0.146646  
         H13       1.0000    0.25300   0.29280   0.95000   Biso      1.000     H          0.139506  
         H14       1.0000    0.17980   0.31780   0.02190   Biso      1.000     H          0.125366  
         H15       1.0000    0.35020   0.32640   0.07840   Biso      1.000     H          0.258075  
         H16       1.0000    0.54030   0.80600   0.12900   Biso      1.000     H          0.148945  
         H17       1.0000    0.60180   0.91420   0.19440   Biso      1.000     H          0.146636  
         H18       1.0000    0.70720   0.96020   0.95000   Biso      1.000     H          0.139491  
         H19       1.0000    0.68220   0.86200   0.02190   Biso      1.000     H          0.125354  
         H20       1.0000    0.67360   0.02380   0.07840   Biso      1.000     H          0.25806999999999997           
         H21       1.0000    0.19400   0.73430   0.12900   Biso      1.000     H          0.148953  
         H22       1.0000    0.08580   0.68760   0.19440   Biso      1.000     H          0.14664100000000002           
         H23       1.0000    0.03980   0.74700   0.95000   Biso      1.000     H          0.139498  
         H24       1.0000    0.13800   0.82020   0.02190   Biso      1.000     H          0.125363  
         H25       1.0000    0.97620   0.64980   0.07840   Biso      1.000     H          0.25807199999999997           
         H26       1.0000    0.73430   0.54030   0.87100   Biso      1.000     H          0.148951  
         H27       1.0000    0.02380   0.67360   0.42160   Biso      1.000     H          0.258073  
         H28       1.0000    0.86200   0.68220   0.47810   Biso      1.000     H          0.125359  
         H29       1.0000    0.67360   0.64980   0.57840   Biso      1.000     H          0.25807199999999997           
         H30       1.0000    0.91420   0.60180   0.30560   Biso      1.000     H          0.14664100000000002           
         H31       1.0000    0.68220   0.82020   0.52190   Biso      1.000     H          0.12536   
         H32       1.0000    0.70720   0.74700   0.45000   Biso      1.000     H          0.139489  
         H33       1.0000    0.60180   0.68760   0.69440   Biso      1.000     H          0.14664100000000002           
         H34       1.0000    0.54030   0.73430   0.62900   Biso      1.000     H          0.148954  
         H35       1.0000    0.35020   0.02380   0.57840   Biso      1.000     H          0.25806999999999997           
         H36       1.0000    0.17980   0.86200   0.52190   Biso      1.000     H          0.125355  
         H37       1.0000    0.25300   0.96020   0.45000   Biso      1.000     H          0.139488  
         H38       1.0000    0.31240   0.91420   0.69440   Biso      1.000     H          0.14663800000000002           
         H39       1.0000    0.26570   0.80600   0.62900   Biso      1.000     H          0.148946  
         H40       1.0000    0.97620   0.32640   0.57840   Biso      1.000     H          0.25807399999999997           
         H41       1.0000    0.13800   0.31780   0.52190   Biso      1.000     H          0.125364  
         H42       1.0000    0.03980   0.29280   0.45000   Biso      1.000     H          0.139502  
         H43       1.0000    0.19400   0.45970   0.62900   Biso      1.000     H          0.14895   
         H44       1.0000    0.68760   0.60180   0.80560   Biso      1.000     H          0.146643  
         H45       1.0000    0.08580   0.39820   0.69440   Biso      1.000     H          0.146642  
         H46       1.0000    0.82020   0.68220   0.97810   Biso      1.000     H          0.125366  
         H47       1.0000    0.96020   0.70720   0.55000   Biso      1.000     H          0.139495  
         H48       1.0000    0.80600   0.54030   0.37100   Biso      1.000     H          0.14895   
         H49       1.0000    0.02380   0.35020   0.92160   Biso      1.000     H          0.258071  
         H50       1.0000    0.86200   0.17980   0.97810   Biso      1.000     H          0.125361  
         H51       1.0000    0.74700   0.70720   0.05000   Biso      1.000     H          0.139501  
         H52       1.0000    0.91420   0.31240   0.80560   Biso      1.000     H          0.14663900000000002           
         H53       1.0000    0.80600   0.26570   0.87100   Biso      1.000     H          0.148952  
         H54       1.0000    0.96020   0.25300   0.05000   Biso      1.000     H          0.139493  
         H55       1.0000    0.31780   0.13800   0.97810   Biso      1.000     H          0.125358  
         H56       1.0000    0.29280   0.03980   0.05000   Biso      1.000     H          0.139494  
         H57       1.0000    0.39820   0.08580   0.80560   Biso      1.000     H          0.14664100000000002           
         H58       1.0000    0.45970   0.19400   0.87100   Biso      1.000     H          0.148946  
         H59       1.0000    0.64980   0.67360   0.92160   Biso      1.000     H          0.258076  
         H60       1.0000    0.32640   0.97620   0.92160   Biso      1.000     H          0.258071  
         N1        1.0000    0.38960   0.04220   0.94180   Biso      1.000     N          -0.284481           
         N2        1.0000    0.04220   0.38960   0.55820   Biso      1.000     N          -0.284479           
         N3        1.0000    0.34740   0.95780   0.55820   Biso      1.000     N          -0.284483           
         N4        1.0000    0.61040   0.65260   0.55820   Biso      1.000     N          -0.284481           
         N5        1.0000    0.65260   0.61040   0.94180   Biso      1.000     N          -0.28448  
         N6        1.0000    0.95780   0.34740   0.94180   Biso      1.000     N          -0.284482           
         N7        1.0000    0.61040   0.95780   0.05820   Biso      1.000     N          -0.284481           
         N8        1.0000    0.65260   0.04220   0.44180   Biso      1.000     N          -0.284483           
         N9        1.0000    0.38960   0.34740   0.44180   Biso      1.000     N          -0.284481           
         N10       1.0000    0.34740   0.38960   0.05820   Biso      1.000     N          -0.284479           
         N11       1.0000    0.04220   0.65260   0.05820   Biso      1.000     N          -0.284481           
         N12       1.0000    0.95780   0.61040   0.44180   Biso      1.000     N          -0.28448  
         O1        1.0000    0.75430   0.19350   0.12800   Biso      1.000     O          -0.612209           
         O2        1.0000    0.81550   0.43460   0.77050   Biso      1.000     O          -0.668882           
         O3        1.0000    0.92490   0.52320   0.89180   Biso      1.000     O          -0.524802           
         O4        1.0000    0.54890   0.18880   0.05950   Biso      1.000     O          -0.67852  
         O5        1.0000    0.43920   0.24570   0.12800   Biso      1.000     O          -0.6122310000000001           
         O6        1.0000    0.61910   0.18450   0.77050   Biso      1.000     O          -0.668832           
         O7        1.0000    0.59830   0.07510   0.89180   Biso      1.000     O          -0.524806           
         O8        1.0000    0.63990   0.45110   0.05950   Biso      1.000     O          -0.678547           
         O9        1.0000    0.80650   0.56080   0.12800   Biso      1.000     O          -0.612215           
         O10       1.0000    0.56540   0.38090   0.77050   Biso      1.000     O          -0.66886  
         O11       1.0000    0.56080   0.80650   0.37200   Biso      1.000     O          -0.61221  
         O12       1.0000    0.45110   0.63990   0.44050   Biso      1.000     O          -0.678557           
         O13       1.0000    0.38090   0.56540   0.72950   Biso      1.000     O          -0.668884           
         O14       1.0000    0.40170   0.47680   0.60820   Biso      1.000     O          -0.5248   
         O15       1.0000    0.36010   0.81120   0.44050   Biso      1.000     O          -0.678523           
         O16       1.0000    0.19350   0.75430   0.37200   Biso      1.000     O          -0.6122340000000001           
         O17       1.0000    0.43460   0.81550   0.72950   Biso      1.000     O          -0.668837           
         O18       1.0000    0.24570   0.43920   0.37200   Biso      1.000     O          -0.612221           
         O19       1.0000    0.52320   0.92490   0.60820   Biso      1.000     O          -0.524806           
         O20       1.0000    0.18880   0.54890   0.44050   Biso      1.000     O          -0.678546           
         O21       1.0000    0.81120   0.36010   0.05950   Biso      1.000     O          -0.678555           
         O22       1.0000    0.47680   0.40170   0.89180   Biso      1.000     O          -0.5247970000000001           
         O23       1.0000    0.92490   0.40170   0.39180   Biso      1.000     O          -0.5247970000000001           
         O24       1.0000    0.18450   0.56540   0.22950   Biso      1.000     O          -0.668883           
         O25       1.0000    0.75430   0.56080   0.62800   Biso      1.000     O          -0.612223           
         O26       1.0000    0.18450   0.61910   0.72950   Biso      1.000     O          -0.668864           
         O27       1.0000    0.18880   0.63990   0.94050   Biso      1.000     O          -0.678553           
         O28       1.0000    0.24570   0.80650   0.87200   Biso      1.000     O          -0.612208           
         O29       1.0000    0.07510   0.47680   0.10820   Biso      1.000     O          -0.5248010000000001           
         O30       1.0000    0.45110   0.81120   0.94050   Biso      1.000     O          -0.6785220000000001           
         O31       1.0000    0.56080   0.75430   0.87200   Biso      1.000     O          -0.6122310000000001           
         O32       1.0000    0.38090   0.81550   0.22950   Biso      1.000     O          -0.668834           
         O33       1.0000    0.40170   0.92490   0.10820   Biso      1.000     O          -0.5248079999999999           
         O34       1.0000    0.36010   0.54890   0.94050   Biso      1.000     O          -0.678546           
         O35       1.0000    0.19350   0.43920   0.87200   Biso      1.000     O          -0.612215           
         O36       1.0000    0.43460   0.61910   0.22950   Biso      1.000     O          -0.668859           
         O37       1.0000    0.52320   0.59830   0.10820   Biso      1.000     O          -0.524795           
         O38       1.0000    0.54890   0.36010   0.55950   Biso      1.000     O          -0.678552           
         O39       1.0000    0.43920   0.19350   0.62800   Biso      1.000     O          -0.612209           
         O40       1.0000    0.61910   0.43460   0.27050   Biso      1.000     O          -0.668882           
         O41       1.0000    0.59830   0.52320   0.39180   Biso      1.000     O          -0.5247970000000001           
         O42       1.0000    0.63990   0.18880   0.55950   Biso      1.000     O          -0.6785260000000001           
         O43       1.0000    0.80650   0.24570   0.62800   Biso      1.000     O          -0.612236           
         O44       1.0000    0.56540   0.18450   0.27050   Biso      1.000     O          -0.668838           
         O45       1.0000    0.47680   0.07510   0.39180   Biso      1.000     O          -0.524809           
         O46       1.0000    0.81120   0.45110   0.55950   Biso      1.000     O          -0.678549           
         O47       1.0000    0.81550   0.38090   0.27050   Biso      1.000     O          -0.668864           
         O48       1.0000    0.07510   0.59830   0.60820   Biso      1.000     O          -0.524796 