
##########################################################################
#               Crystallographic Information Format file
#               Produced by PyCifRW module
#
#  This is a CIF file.  CIF has been adopted by the International
#  Union of Crystallography as the standard for data archiving and
#  transmission.
#
#  For information on this file format, follow the CIF links at
#  http://www.iucr.org
##########################################################################

data_image0

_cell_length_a                          13.352
_cell_length_b                          13.352
_cell_length_c                          14.414
_cell_angle_alpha                       90
_cell_angle_beta                        90
_cell_angle_gamma                       120
_symmetry_space_group_name_H-M          'P 1'
_symmetry_int_tables_number             1
loop_
  _symmetry_equiv_pos_as_xyz
         'x, y, z' 
loop_
  _atom_site_label
  _atom_site_occupancy
  _atom_site_fract_x
  _atom_site_fract_y
  _atom_site_fract_z
  _atom_site_thermal_displace_type
  _atom_site_B_iso_or_equiv
  _atom_site_type_symbol
  _atom_site_charge
         C1        1.0000    0.45340   0.18380   0.93030   Biso      1.000     C          0.645421  
         C2        1.0000    0.90180   0.25340   0.99050   Biso      1.000     C          -0.226377           
         C3        1.0000    0.81620   0.26960   0.93030   Biso      1.000     C          0.645414  
         C4        1.0000    0.88300   0.33130   0.14040   Biso      1.000     C          -0.24316  
         C5        1.0000    0.87360   0.43580   0.16020   Biso      1.000     C          0.688705  
         C6        1.0000    0.35160   0.09820   0.99050   Biso      1.000     C          -0.22637800000000002          
         C7        1.0000    0.44830   0.11700   0.14040   Biso      1.000     C          -0.24315599999999998          
         C8        1.0000    0.56220   0.12640   0.16020   Biso      1.000     C          0.688715  
         C9        1.0000    0.74660   0.64840   0.99050   Biso      1.000     C          -0.226379           
         C10       1.0000    0.73040   0.54660   0.93030   Biso      1.000     C          0.645413  
         C11       1.0000    0.87360   0.43780   0.66020   Biso      1.000     C          0.688701  
         C12       1.0000    0.66870   0.55170   0.14040   Biso      1.000     C          -0.24316300000000002          
         C13       1.0000    0.64840   0.74660   0.50950   Biso      1.000     C          -0.226377           
         C14       1.0000    0.54660   0.73040   0.56970   Biso      1.000     C          0.645414  
         C15       1.0000    0.55170   0.66870   0.35960   Biso      1.000     C          -0.24316  
         C16       1.0000    0.43780   0.56420   0.33980   Biso      1.000     C          0.688705  
         C17       1.0000    0.25340   0.90180   0.50950   Biso      1.000     C          -0.22637800000000002          
         C18       1.0000    0.26960   0.81620   0.56970   Biso      1.000     C          0.64542   
         C19       1.0000    0.43580   0.87360   0.33980   Biso      1.000     C          0.688715  
         C20       1.0000    0.09820   0.35160   0.50950   Biso      1.000     C          -0.226379           
         C21       1.0000    0.18380   0.45340   0.56970   Biso      1.000     C          0.645413  
         C22       1.0000    0.56420   0.43780   0.16020   Biso      1.000     C          0.688702  
         C23       1.0000    0.11700   0.44830   0.35960   Biso      1.000     C          -0.24316300000000002          
         C24       1.0000    0.88300   0.55170   0.64040   Biso      1.000     C          -0.24316300000000002          
         C25       1.0000    0.90180   0.64840   0.49050   Biso      1.000     C          -0.226379           
         C26       1.0000    0.09820   0.74660   0.00950   Biso      1.000     C          -0.226377           
         C27       1.0000    0.18380   0.73040   0.06970   Biso      1.000     C          0.645414  
         C28       1.0000    0.11700   0.66870   0.85960   Biso      1.000     C          -0.24316  
         C29       1.0000    0.12640   0.56420   0.83980   Biso      1.000     C          0.688705  
         C30       1.0000    0.64840   0.90180   0.00950   Biso      1.000     C          -0.226377           
         C31       1.0000    0.54660   0.81620   0.06970   Biso      1.000     C          0.64542   
         C32       1.0000    0.55170   0.88300   0.85960   Biso      1.000     C          -0.24315599999999998          
         C33       1.0000    0.43780   0.87360   0.83980   Biso      1.000     C          0.688715  
         C34       1.0000    0.25340   0.35160   0.00950   Biso      1.000     C          -0.226379           
         C35       1.0000    0.81620   0.54660   0.43030   Biso      1.000     C          0.645413  
         C36       1.0000    0.26960   0.45340   0.06970   Biso      1.000     C          0.645413  
         C37       1.0000    0.43580   0.56220   0.83980   Biso      1.000     C          0.688702  
         C38       1.0000    0.35160   0.25340   0.49050   Biso      1.000     C          -0.226377           
         C39       1.0000    0.45340   0.26960   0.43030   Biso      1.000     C          0.645414  
         C40       1.0000    0.44830   0.33130   0.64040   Biso      1.000     C          -0.24316  
         C41       1.0000    0.56220   0.43580   0.66020   Biso      1.000     C          0.688705  
         C42       1.0000    0.74660   0.09820   0.49050   Biso      1.000     C          -0.22637800000000002          
         C43       1.0000    0.73040   0.18380   0.43030   Biso      1.000     C          0.64542   
         C44       1.0000    0.66870   0.11700   0.64040   Biso      1.000     C          -0.24315599999999998          
         C45       1.0000    0.56420   0.12640   0.66020   Biso      1.000     C          0.688715  
         C46       1.0000    0.33130   0.44830   0.85960   Biso      1.000     C          -0.24316300000000002          
         C47       1.0000    0.12640   0.56220   0.33980   Biso      1.000     C          0.688701  
         C48       1.0000    0.33130   0.88300   0.35960   Biso      1.000     C          -0.24315599999999998          
         Cu1       1.0000    0.50000   0.50000   0.00000   Biso      1.000     Cu          0.7835439999999999  
         Cu2       1.0000    0.00000   0.50000   0.00000   Biso      1.000     Cu          0.783546  
         Cu3       1.0000    0.50000   0.00000   0.00000   Biso      1.000     Cu          0.7835529999999999  
         Cu4       1.0000    0.00000   0.50000   0.50000   Biso      1.000     Cu          0.7835449999999999  
         Cu5       1.0000    0.50000   0.50000   0.50000   Biso      1.000     Cu          0.7835479999999999  
         Cu6       1.0000    0.50000   0.00000   0.50000   Biso      1.000     Cu          0.783554  
         H1        1.0000    0.82000   0.13880   0.52280   Biso      1.000     H          0.126864  
         H2        1.0000    0.70800   0.74780   0.54880   Biso      1.000     H          0.139369  
         H3        1.0000    0.64930   0.67320   0.07880   Biso      1.000     H          0.258281  
         H4        1.0000    0.68660   0.60120   0.19440   Biso      1.000     H          0.148316  
         H5        1.0000    0.73390   0.54030   0.12910   Biso      1.000     H          0.150226  
         H6        1.0000    0.82000   0.68120   0.02280   Biso      1.000     H          0.126869  
         H7        1.0000    0.39880   0.08540   0.19440   Biso      1.000     H          0.148315  
         H8        1.0000    0.32680   0.97610   0.07880   Biso      1.000     H          0.258278  
         H9        1.0000    0.68120   0.82000   0.47720   Biso      1.000     H          0.126869  
         H10       1.0000    0.45970   0.19360   0.12910   Biso      1.000     H          0.150224  
         H11       1.0000    0.31880   0.13880   0.02280   Biso      1.000     H          0.126865  
         H12       1.0000    0.74780   0.70800   0.95120   Biso      1.000     H          0.139371  
         H13       1.0000    0.54030   0.73390   0.37090   Biso      1.000     H          0.15023   
         H14       1.0000    0.73390   0.19360   0.62910   Biso      1.000     H          0.150224  
         H15       1.0000    0.67320   0.64930   0.42120   Biso      1.000     H          0.258277  
         H16       1.0000    0.29200   0.03980   0.95120   Biso      1.000     H          0.13936700000000002           
         H17       1.0000    0.18000   0.86120   0.47720   Biso      1.000     H          0.126864  
         H18       1.0000    0.26610   0.80640   0.37090   Biso      1.000     H          0.150224  
         H19       1.0000    0.31340   0.91460   0.30560   Biso      1.000     H          0.148314  
         H20       1.0000    0.35070   0.02390   0.42120   Biso      1.000     H          0.258278  
         H21       1.0000    0.03980   0.29200   0.54880   Biso      1.000     H          0.13937   
         H22       1.0000    0.13880   0.31880   0.47720   Biso      1.000     H          0.126869  
         H23       1.0000    0.19360   0.45970   0.37090   Biso      1.000     H          0.150225  
         H24       1.0000    0.08540   0.39880   0.30560   Biso      1.000     H          0.148315  
         H25       1.0000    0.97610   0.32680   0.42120   Biso      1.000     H          0.258281  
         H26       1.0000    0.60120   0.68660   0.30560   Biso      1.000     H          0.148317  
         H27       1.0000    0.02390   0.35070   0.07880   Biso      1.000     H          0.258277  
         H28       1.0000    0.25220   0.96020   0.54880   Biso      1.000     H          0.13936600000000002           
         H29       1.0000    0.80640   0.26610   0.12910   Biso      1.000     H          0.15023   
         H30       1.0000    0.54030   0.80640   0.87090   Biso      1.000     H          0.150224  
         H31       1.0000    0.60120   0.91460   0.80560   Biso      1.000     H          0.148315  
         H32       1.0000    0.67320   0.02390   0.92120   Biso      1.000     H          0.258278  
         H33       1.0000    0.25220   0.29200   0.04880   Biso      1.000     H          0.139371  
         H34       1.0000    0.18000   0.31880   0.97720   Biso      1.000     H          0.126869  
         H35       1.0000    0.26610   0.45970   0.87090   Biso      1.000     H          0.150226  
         H36       1.0000    0.68120   0.86120   0.97720   Biso      1.000     H          0.126865  
         H37       1.0000    0.31340   0.39880   0.80560   Biso      1.000     H          0.148316  
         H38       1.0000    0.31880   0.18000   0.52280   Biso      1.000     H          0.126869  
         H39       1.0000    0.45970   0.26610   0.62910   Biso      1.000     H          0.15023   
         H40       1.0000    0.39880   0.31340   0.69440   Biso      1.000     H          0.148317  
         H41       1.0000    0.32680   0.35070   0.57880   Biso      1.000     H          0.258277  
         H42       1.0000    0.74780   0.03980   0.45120   Biso      1.000     H          0.13936600000000002           
         H43       1.0000    0.91460   0.31340   0.19440   Biso      1.000     H          0.148316  
         H44       1.0000    0.35070   0.32680   0.92120   Biso      1.000     H          0.258281  
         H45       1.0000    0.70800   0.96020   0.04880   Biso      1.000     H          0.13936600000000002           
         H46       1.0000    0.29200   0.25220   0.45120   Biso      1.000     H          0.13936800000000002           
         H47       1.0000    0.08540   0.68660   0.80560   Biso      1.000     H          0.148316  
         H48       1.0000    0.19360   0.73390   0.87090   Biso      1.000     H          0.15023   
         H49       1.0000    0.13880   0.82000   0.97720   Biso      1.000     H          0.126868  
         H50       1.0000    0.03980   0.74780   0.04880   Biso      1.000     H          0.13936700000000002           
         H51       1.0000    0.68660   0.08540   0.69440   Biso      1.000     H          0.148314  
         H52       1.0000    0.64930   0.97610   0.57880   Biso      1.000     H          0.258278  
         H53       1.0000    0.96020   0.70800   0.45120   Biso      1.000     H          0.13937   
         H54       1.0000    0.86120   0.68120   0.52280   Biso      1.000     H          0.126869  
         H55       1.0000    0.80640   0.54030   0.62910   Biso      1.000     H          0.150225  
         H56       1.0000    0.97610   0.64930   0.92120   Biso      1.000     H          0.258277  
         H57       1.0000    0.91460   0.60120   0.69440   Biso      1.000     H          0.148316  
         H58       1.0000    0.02390   0.67320   0.57880   Biso      1.000     H          0.258281  
         H59       1.0000    0.96020   0.25220   0.95120   Biso      1.000     H          0.13936700000000002           
         H60       1.0000    0.86120   0.18000   0.02280   Biso      1.000     H          0.126868  
         N1        1.0000    0.95800   0.61020   0.55860   Biso      1.000     N          -0.286127           
         N2        1.0000    0.65220   0.04200   0.55860   Biso      1.000     N          -0.286129           
         N3        1.0000    0.61020   0.95800   0.94140   Biso      1.000     N          -0.286128           
         N4        1.0000    0.34780   0.38980   0.94140   Biso      1.000     N          -0.286127           
         N5        1.0000    0.95800   0.34780   0.05860   Biso      1.000     N          -0.286129           
         N6        1.0000    0.04200   0.65220   0.94140   Biso      1.000     N          -0.286129           
         N7        1.0000    0.38980   0.34780   0.55860   Biso      1.000     N          -0.286129           
         N8        1.0000    0.38980   0.04200   0.05860   Biso      1.000     N          -0.286128           
         N9        1.0000    0.04200   0.38980   0.44140   Biso      1.000     N          -0.286127           
         N10       1.0000    0.61020   0.65220   0.44140   Biso      1.000     N          -0.286129           
         N11       1.0000    0.34780   0.95800   0.44140   Biso      1.000     N          -0.286129           
         N12       1.0000    0.65220   0.61020   0.05860   Biso      1.000     N          -0.286127           
         O1        1.0000    0.81130   0.45060   0.44140   Biso      1.000     O          -0.67442  
         O2        1.0000    0.92550   0.40190   0.60770   Biso      1.000     O          -0.528539           
         O3        1.0000    0.75530   0.19420   0.87240   Biso      1.000     O          -0.6152880000000001           
         O4        1.0000    0.81580   0.38120   0.72870   Biso      1.000     O          -0.665492           
         O5        1.0000    0.61880   0.43460   0.72870   Biso      1.000     O          -0.6654939999999999           
         O6        1.0000    0.75530   0.56110   0.37240   Biso      1.000     O          -0.61528  
         O7        1.0000    0.56540   0.18420   0.72870   Biso      1.000     O          -0.6655260000000001           
         O8        1.0000    0.47640   0.07450   0.60770   Biso      1.000     O          -0.528543           
         O9        1.0000    0.63930   0.18870   0.44140   Biso      1.000     O          -0.6744399999999999           
         O10       1.0000    0.80580   0.24470   0.37240   Biso      1.000     O          -0.615302           
         O11       1.0000    0.59810   0.52360   0.60770   Biso      1.000     O          -0.528542           
         O12       1.0000    0.18420   0.56540   0.77130   Biso      1.000     O          -0.665495           
         O13       1.0000    0.43890   0.19420   0.37240   Biso      1.000     O          -0.6152880000000001           
         O14       1.0000    0.43460   0.61880   0.77130   Biso      1.000     O          -0.665492           
         O15       1.0000    0.52360   0.59810   0.89230   Biso      1.000     O          -0.5285380000000001           
         O16       1.0000    0.36070   0.54940   0.05860   Biso      1.000     O          -0.67442  
         O17       1.0000    0.19420   0.43890   0.12760   Biso      1.000     O          -0.61528  
         O18       1.0000    0.38120   0.81580   0.77130   Biso      1.000     O          -0.6655260000000001           
         O19       1.0000    0.40190   0.92550   0.89230   Biso      1.000     O          -0.528543           
         O20       1.0000    0.07450   0.47640   0.89230   Biso      1.000     O          -0.528542           
         O21       1.0000    0.56110   0.75530   0.12760   Biso      1.000     O          -0.615302           
         O22       1.0000    0.45060   0.81130   0.05860   Biso      1.000     O          -0.6744399999999999           
         O23       1.0000    0.81130   0.36070   0.94140   Biso      1.000     O          -0.674437           
         O24       1.0000    0.54940   0.36070   0.44140   Biso      1.000     O          -0.674437           
         O25       1.0000    0.92550   0.52360   0.10770   Biso      1.000     O          -0.528542           
         O26       1.0000    0.24470   0.80580   0.12760   Biso      1.000     O          -0.6152880000000001           
         O27       1.0000    0.43890   0.24470   0.87240   Biso      1.000     O          -0.615302           
         O28       1.0000    0.18870   0.63930   0.05860   Biso      1.000     O          -0.674437           
         O29       1.0000    0.18420   0.61880   0.27130   Biso      1.000     O          -0.665492           
         O30       1.0000    0.07450   0.59810   0.39230   Biso      1.000     O          -0.528539           
         O31       1.0000    0.18870   0.54940   0.55860   Biso      1.000     O          -0.67442  
         O32       1.0000    0.24470   0.43890   0.62760   Biso      1.000     O          -0.61528  
         O33       1.0000    0.43460   0.81580   0.27130   Biso      1.000     O          -0.6655260000000001           
         O34       1.0000    0.52360   0.92550   0.39230   Biso      1.000     O          -0.528543           
         O35       1.0000    0.36070   0.81130   0.55860   Biso      1.000     O          -0.6744399999999999           
         O36       1.0000    0.81580   0.43460   0.22870   Biso      1.000     O          -0.665495           
         O37       1.0000    0.38120   0.56540   0.27130   Biso      1.000     O          -0.6654939999999999           
         O38       1.0000    0.19420   0.75530   0.62760   Biso      1.000     O          -0.615302           
         O39       1.0000    0.45060   0.63930   0.55860   Biso      1.000     O          -0.674437           
         O40       1.0000    0.56110   0.80580   0.62760   Biso      1.000     O          -0.6152880000000001           
         O41       1.0000    0.56540   0.38120   0.22870   Biso      1.000     O          -0.665492           
         O42       1.0000    0.47640   0.40190   0.10770   Biso      1.000     O          -0.5285380000000001           
         O43       1.0000    0.63930   0.45060   0.94140   Biso      1.000     O          -0.67442  
         O44       1.0000    0.80580   0.56110   0.87240   Biso      1.000     O          -0.61528  
         O45       1.0000    0.61880   0.18420   0.22870   Biso      1.000     O          -0.6655260000000001           
         O46       1.0000    0.59810   0.07450   0.10770   Biso      1.000     O          -0.528543           
         O47       1.0000    0.54940   0.18870   0.94140   Biso      1.000     O          -0.6744399999999999           
         O48       1.0000    0.40190   0.47640   0.39230   Biso      1.000     O          -0.528542           
         Tb1       1.0000    0.33333   0.66666   0.66760   Biso      1.000     Tb          2.071439  
         Tb2       1.0000    0.66667   0.33334   0.83240   Biso      1.000     Tb          2.07144   
         Tb3       1.0000    0.66667   0.33334   0.33240   Biso      1.000     Tb          2.071439  
         Tb4       1.0000    0.33333   0.66666   0.16760   Biso      1.000     Tb          2.071439 