
##########################################################################
#               Crystallographic Information Format file
#               Produced by PyCifRW module
#
#  This is a CIF file.  CIF has been adopted by the International
#  Union of Crystallography as the standard for data archiving and
#  transmission.
#
#  For information on this file format, follow the CIF links at
#  http://www.iucr.org
##########################################################################

data_image0

_cell_length_a                          9.9033
_cell_length_b                          9.9033
_cell_length_c                          14.626
_cell_angle_alpha                       84.6672
_cell_angle_beta                        71.1235
_cell_angle_gamma                       112.639
_symmetry_space_group_name_H-M          'P 1'
_symmetry_int_tables_number             1
loop_
  _symmetry_equiv_pos_as_xyz
         'x, y, z' 
loop_
  _atom_site_label
  _atom_site_occupancy
  _atom_site_fract_x
  _atom_site_fract_y
  _atom_site_fract_z
  _atom_site_thermal_displace_type
  _atom_site_B_iso_or_equiv
  _atom_site_type_symbol
  _atom_site_charge
         C1        1.0000    0.89950   0.23610   0.02940   Biso      1.000     C          0.6381    
         C2        1.0000    0.15210   0.92470   0.92120   Biso      1.000     C          -0.034307           
         C3        1.0000    0.57400   0.21160   0.61500   Biso      1.000     C          -0.022202           
         C4        1.0000    0.23450   0.07110   0.52940   Biso      1.000     C          0.635025  
         C5        1.0000    0.71020   0.35930   0.60050   Biso      1.000     C          0.637367  
         C6        1.0000    0.56360   0.07670   0.66070   Biso      1.000     C          -0.090311           
         C7        1.0000    0.46190   0.20950   0.57640   Biso      1.000     C          -0.138177           
         C8        1.0000    0.93780   0.59240   0.73940   Biso      1.000     C          0.504709  
         C9        1.0000    0.33610   0.93850   0.62560   Biso      1.000     C          -0.086567           
         C10       1.0000    0.44190   0.94150   0.66840   Biso      1.000     C          -0.085663           
         C11       1.0000    0.34590   0.07330   0.57880   Biso      1.000     C          -0.033443           
         C12       1.0000    0.10990   0.11030   0.83160   Biso      1.000     C          -0.083232           
         C13       1.0000    0.67340   0.81100   0.11500   Biso      1.000     C          -0.021741           
         C14       1.0000    0.54020   0.68930   0.10050   Biso      1.000     C          0.633738  
         C15       1.0000    0.76260   0.77570   0.16070   Biso      1.000     C          -0.092952           
         C16       1.0000    0.71410   0.96170   0.07640   Biso      1.000     C          -0.137364           
         C17       1.0000    0.16820   0.32280   0.23940   Biso      1.000     C          0.507512  
         C18       1.0000    0.93590   0.03830   0.12560   Biso      1.000     C          -0.088568           
         C19       1.0000    0.89010   0.88970   0.16840   Biso      1.000     C          -0.083225           
         C20       1.0000    0.84790   0.07530   0.07880   Biso      1.000     C          -0.034305           
         C21       1.0000    0.42600   0.78840   0.38500   Biso      1.000     C          -0.022203           
         C22       1.0000    0.76550   0.92890   0.47060   Biso      1.000     C          0.635025  
         C23       1.0000    0.28980   0.64070   0.39950   Biso      1.000     C          0.637367  
         C24       1.0000    0.06220   0.40760   0.26060   Biso      1.000     C          0.504708  
         C25       1.0000    0.06410   0.96170   0.87440   Biso      1.000     C          -0.088564           
         C26       1.0000    0.83180   0.67720   0.76060   Biso      1.000     C          0.507512  
         C27       1.0000    0.28590   0.03830   0.92360   Biso      1.000     C          -0.137363           
         C28       1.0000    0.65410   0.92670   0.42120   Biso      1.000     C          -0.033445           
         C29       1.0000    0.55810   0.05850   0.33160   Biso      1.000     C          -0.08567  
         C30       1.0000    0.66390   0.06150   0.37440   Biso      1.000     C          -0.086562           
         C31       1.0000    0.43640   0.92330   0.33930   Biso      1.000     C          -0.090309           
         C32       1.0000    0.53810   0.79050   0.42360   Biso      1.000     C          -0.138176           
         C33       1.0000    0.23740   0.22430   0.83930   Biso      1.000     C          -0.092949           
         C34       1.0000    0.45980   0.31070   0.89950   Biso      1.000     C          0.633738  
         C35       1.0000    0.10050   0.76390   0.97060   Biso      1.000     C          0.6381    
         C36       1.0000    0.32660   0.18900   0.88500   Biso      1.000     C          -0.02174  
         H1        1.0000    0.36700   0.92500   0.30000   Biso      1.000     H          0.102236  
         H2        1.0000    0.98600   0.88700   0.86900   Biso      1.000     H          0.119262  
         H3        1.0000    0.05800   0.14000   0.80000   Biso      1.000     H          0.112692  
         H4        1.0000    0.27500   0.33300   0.80000   Biso      1.000     H          0.104715  
         H5        1.0000    0.34500   0.01200   0.94700   Biso      1.000     H          0.129757  
         H6        1.0000    0.25600   0.85500   0.63100   Biso      1.000     H          0.118225  
         H7        1.0000    0.44000   0.85800   0.70000   Biso      1.000     H          0.11375   
         H8        1.0000    0.63300   0.07500   0.70000   Biso      1.000     H          0.102237  
         H9        1.0000    0.45900   0.29200   0.55300   Biso      1.000     H          0.129726  
         H10       1.0000    0.94200   0.86000   0.20000   Biso      1.000     H          0.112691  
         H11       1.0000    0.72500   0.66700   0.20000   Biso      1.000     H          0.104715  
         H12       1.0000    0.65500   0.98800   0.05300   Biso      1.000     H          0.129757  
         H13       1.0000    0.74400   0.14500   0.36900   Biso      1.000     H          0.118224  
         H14       1.0000    0.56000   0.14200   0.30000   Biso      1.000     H          0.113751  
         H15       1.0000    0.54100   0.70800   0.44700   Biso      1.000     H          0.129725  
         H16       1.0000    0.01400   0.11300   0.13100   Biso      1.000     H          0.119262  
         La1       1.0000    0.72795   0.46278   0.98594   Biso      1.000     La          1.962861  
         La2       1.0000    0.05128   0.28611   0.48594   Biso      1.000     La          1.962842  
         La3       1.0000    0.27205   0.53722   0.01406   Biso      1.000     La          1.962862  
         La4       1.0000    0.94872   0.71389   0.51406   Biso      1.000     La          1.962842  
         O1        1.0000    0.15246   0.63514   0.42620   Biso      1.000     O          -0.702955           
         O2        1.0000    0.86707   0.05393   0.46900   Biso      1.000     O          -0.662115           
         O3        1.0000    0.31283   0.52597   0.38920   Biso      1.000     O          -0.588634           
         O4        1.0000    0.98083   0.38856   0.35061   Biso      1.000     O          -0.597637           
         O5        1.0000    0.17193   0.25065   0.31222   Biso      1.000     O          -0.567198           
         O6        1.0000    0.81443   0.26207   0.98870   Biso      1.000     O          -0.632939           
         O7        1.0000    0.56134   0.57866   0.07380   Biso      1.000     O          -0.700382           
         O8        1.0000    0.02293   0.33607   0.03100   Biso      1.000     O          -0.6638   
         O9        1.0000    0.41517   0.70203   0.11080   Biso      1.000     O          -0.587488           
         O10       1.0000    0.23917   0.33144   0.14939   Biso      1.000     O          -0.598367           
         O11       1.0000    0.93713   0.51585   0.81222   Biso      1.000     O          -0.565719           
         O12       1.0000    0.24923   0.19687   0.48870   Biso      1.000     O          -0.630762           
         O13       1.0000    0.84754   0.36486   0.57380   Biso      1.000     O          -0.702955           
         O14       1.0000    0.13293   0.94607   0.53100   Biso      1.000     O          -0.662115           
         O15       1.0000    0.68717   0.47403   0.61080   Biso      1.000     O          -0.588634           
         O16       1.0000    0.01917   0.61144   0.64939   Biso      1.000     O          -0.597637           
         O17       1.0000    0.82807   0.74935   0.68778   Biso      1.000     O          -0.567198           
         O18       1.0000    0.18557   0.73793   0.01130   Biso      1.000     O          -0.632939           
         O19       1.0000    0.43866   0.42134   0.92620   Biso      1.000     O          -0.700382           
         O20       1.0000    0.97707   0.66393   0.96900   Biso      1.000     O          -0.6638   
         O21       1.0000    0.58483   0.29797   0.88920   Biso      1.000     O          -0.587488           
         O22       1.0000    0.76083   0.66856   0.85061   Biso      1.000     O          -0.598367           
         O23       1.0000    0.75077   0.80313   0.51130   Biso      1.000     O          -0.630762           
         O24       1.0000    0.06287   0.48415   0.18778   Biso      1.000     O          -0.565719 