
##########################################################################
#               Crystallographic Information Format file
#               Produced by PyCifRW module
#
#  This is a CIF file.  CIF has been adopted by the International
#  Union of Crystallography as the standard for data archiving and
#  transmission.
#
#  For information on this file format, follow the CIF links at
#  http://www.iucr.org
##########################################################################

data_image0

_cell_length_a                          19.576
_cell_length_b                          18.535
_cell_length_c                          7.8377
_cell_angle_alpha                       90
_cell_angle_beta                        94.15
_cell_angle_gamma                       90
_symmetry_space_group_name_H-M          'P 1'
_symmetry_int_tables_number             1
loop_
  _symmetry_equiv_pos_as_xyz
         'x, y, z' 
loop_
  _atom_site_label
  _atom_site_occupancy
  _atom_site_fract_x
  _atom_site_fract_y
  _atom_site_fract_z
  _atom_site_thermal_displace_type
  _atom_site_B_iso_or_equiv
  _atom_site_type_symbol
  _atom_site_charge
         C1        1.0000    0.33940   0.29440   0.84300   Biso      1.000     C          -0.022152           
         C2        1.0000    0.45450   0.71200   0.42400   Biso      1.000     C          -0.14563399999999999          
         C3        1.0000    0.45290   0.77880   0.47100   Biso      1.000     C          0.004028  
         C4        1.0000    0.51520   0.82170   0.52900   Biso      1.000     C          0.538204  
         C5        1.0000    0.22770   0.83690   0.71900   Biso      1.000     C          0.597264  
         C6        1.0000    0.16810   0.71980   0.61600   Biso      1.000     C          -0.13467300000000001          
         C7        1.0000    0.11250   0.68260   0.55300   Biso      1.000     C          -0.02215  
         C8        1.0000    0.12260   0.60340   0.50300   Biso      1.000     C          0.603823  
         C9        1.0000    0.40940   0.40500   0.78300   Biso      1.000     C          0.6660550000000001  
         C10       1.0000    0.39800   0.66920   0.35100   Biso      1.000     C          -0.08973099999999999          
         C11       1.0000    0.37740   0.10340   0.99700   Biso      1.000     C          0.60377   
         C12       1.0000    0.88750   0.31740   0.44700   Biso      1.000     C          -0.022232           
         C13       1.0000    0.83190   0.28020   0.38400   Biso      1.000     C          -0.134555           
         C14       1.0000    0.77230   0.16310   0.28100   Biso      1.000     C          0.597248  
         C15       1.0000    0.83940   0.20560   0.34300   Biso      1.000     C          -0.021921           
         C16       1.0000    0.90940   0.09500   0.28300   Biso      1.000     C          0.6661020000000001  
         C17       1.0000    0.95450   0.21200   0.42400   Biso      1.000     C          -0.145675           
         C18       1.0000    0.95290   0.27880   0.47100   Biso      1.000     C          0.003982  
         C19       1.0000    0.01520   0.32170   0.52900   Biso      1.000     C          0.538169  
         C20       1.0000    0.87740   0.39660   0.49700   Biso      1.000     C          0.603731  
         C21       1.0000    0.38750   0.18260   0.94700   Biso      1.000     C          -0.02213  
         C22       1.0000    0.40940   0.59500   0.28300   Biso      1.000     C          0.66606   
         C23       1.0000    0.27230   0.66310   0.28100   Biso      1.000     C          0.5973229999999999  
         C24       1.0000    0.83190   0.71980   0.88400   Biso      1.000     C          -0.134666           
         C25       1.0000    0.77230   0.83690   0.78100   Biso      1.000     C          0.5972649999999999  
         C26       1.0000    0.83940   0.79440   0.84300   Biso      1.000     C          -0.021956           
         C27       1.0000    0.90940   0.90500   0.78300   Biso      1.000     C          0.666148  
         C28       1.0000    0.89800   0.83080   0.85100   Biso      1.000     C          -0.08984400000000001          
         C29       1.0000    0.95450   0.78800   0.92400   Biso      1.000     C          -0.145707           
         C30       1.0000    0.95290   0.72120   0.97100   Biso      1.000     C          0.0039840000000000006         
         C31       1.0000    0.01520   0.67830   0.02900   Biso      1.000     C          0.538231  
         C32       1.0000    0.33940   0.70560   0.34300   Biso      1.000     C          -0.022078999999999998         
         C33       1.0000    0.87740   0.60340   0.99700   Biso      1.000     C          0.603804  
         C34       1.0000    0.04710   0.72120   0.52900   Biso      1.000     C          0.00395   
         C35       1.0000    0.04550   0.78800   0.57600   Biso      1.000     C          -0.14566199999999999          
         C36       1.0000    0.10200   0.83080   0.64900   Biso      1.000     C          -0.08988600000000001          
         C37       1.0000    0.09060   0.90500   0.71700   Biso      1.000     C          0.666151  
         C38       1.0000    0.16060   0.79440   0.65700   Biso      1.000     C          -0.021922999999999998         
         C39       1.0000    0.37740   0.89660   0.49700   Biso      1.000     C          0.6037640000000001  
         C40       1.0000    0.38750   0.81740   0.44700   Biso      1.000     C          -0.022158           
         C41       1.0000    0.33190   0.78020   0.38400   Biso      1.000     C          -0.134901           
         C42       1.0000    0.98480   0.67830   0.47100   Biso      1.000     C          0.538239  
         C43       1.0000    0.33190   0.21980   0.88400   Biso      1.000     C          -0.134962           
         C44       1.0000    0.89800   0.16920   0.35100   Biso      1.000     C          -0.08970299999999999          
         C45       1.0000    0.66810   0.21980   0.61600   Biso      1.000     C          -0.134985           
         C46       1.0000    0.48480   0.82170   0.97100   Biso      1.000     C          0.538207  
         C47       1.0000    0.72770   0.33690   0.71900   Biso      1.000     C          0.5973310000000001  
         C48       1.0000    0.48480   0.17830   0.47100   Biso      1.000     C          0.53822   
         C49       1.0000    0.61250   0.18260   0.55300   Biso      1.000     C          -0.022118000000000002         
         C50       1.0000    0.62260   0.10340   0.50300   Biso      1.000     C          0.6037779999999999  
         C51       1.0000    0.27230   0.33690   0.78100   Biso      1.000     C          0.5973310000000001  
         C52       1.0000    0.51520   0.17830   0.02900   Biso      1.000     C          0.538223  
         C53       1.0000    0.45290   0.22120   0.97100   Biso      1.000     C          0.004002  
         C54       1.0000    0.45450   0.28800   0.92400   Biso      1.000     C          -0.145585           
         C55       1.0000    0.54710   0.77880   0.02900   Biso      1.000     C          0.00399   
         C56       1.0000    0.12260   0.39660   0.00300   Biso      1.000     C          0.603713  
         C57       1.0000    0.16810   0.28020   0.11600   Biso      1.000     C          -0.13456600000000002          
         C58       1.0000    0.22770   0.16310   0.21900   Biso      1.000     C          0.597247  
         C59       1.0000    0.16060   0.20560   0.15700   Biso      1.000     C          -0.02192  
         C60       1.0000    0.09060   0.09500   0.21700   Biso      1.000     C          0.6661020000000001  
         C61       1.0000    0.10200   0.16920   0.14900   Biso      1.000     C          -0.089705           
         C62       1.0000    0.04550   0.21200   0.07600   Biso      1.000     C          -0.145673           
         C63       1.0000    0.04710   0.27880   0.02900   Biso      1.000     C          0.0039759999999999995         
         C64       1.0000    0.98480   0.32170   0.97100   Biso      1.000     C          0.538168  
         C65       1.0000    0.39800   0.33080   0.85100   Biso      1.000     C          -0.089715           
         C66       1.0000    0.11250   0.31740   0.05300   Biso      1.000     C          -0.022223           
         C67       1.0000    0.54550   0.71200   0.07600   Biso      1.000     C          -0.145595           
         C68       1.0000    0.88750   0.68260   0.94700   Biso      1.000     C          -0.022142           
         C69       1.0000    0.61250   0.81740   0.05300   Biso      1.000     C          -0.022156           
         C70       1.0000    0.59060   0.40500   0.71700   Biso      1.000     C          0.6660560000000001  
         C71       1.0000    0.66810   0.78020   0.11600   Biso      1.000     C          -0.1349   
         C72       1.0000    0.72770   0.66310   0.21900   Biso      1.000     C          0.597325  
         C73       1.0000    0.66060   0.29440   0.65700   Biso      1.000     C          -0.02215  
         C74       1.0000    0.60200   0.33080   0.64900   Biso      1.000     C          -0.089712           
         C75       1.0000    0.66060   0.70560   0.15700   Biso      1.000     C          -0.022111000000000002         
         C76       1.0000    0.54550   0.28800   0.57600   Biso      1.000     C          -0.145629           
         C77       1.0000    0.54710   0.22120   0.52900   Biso      1.000     C          0.0040420000000000005         
         C78       1.0000    0.59060   0.59500   0.21700   Biso      1.000     C          0.6660560000000001  
         C79       1.0000    0.60200   0.66920   0.14900   Biso      1.000     C          -0.089702           
         C80       1.0000    0.62260   0.89660   0.00300   Biso      1.000     C          0.603763  
         H1        1.0000    0.00340   0.18880   0.06080   Biso      1.000     H          0.10530899999999999           
         H2        1.0000    0.99660   0.81120   0.93920   Biso      1.000     H          0.105272  
         H3        1.0000    0.99660   0.18880   0.43920   Biso      1.000     H          0.10531099999999999           
         H4        1.0000    0.78950   0.69720   0.86640   Biso      1.000     H          0.137447  
         H5        1.0000    0.50340   0.31120   0.56080   Biso      1.000     H          0.105326  
         H6        1.0000    0.21050   0.69720   0.63360   Biso      1.000     H          0.13745   
         H7        1.0000    0.50340   0.68880   0.06080   Biso      1.000     H          0.105322  
         H8        1.0000    0.00340   0.81120   0.56080   Biso      1.000     H          0.105268  
         H9        1.0000    0.78950   0.30280   0.36640   Biso      1.000     H          0.137494  
         H10       1.0000    0.49660   0.31120   0.93920   Biso      1.000     H          0.105322  
         H11       1.0000    0.71050   0.80280   0.13360   Biso      1.000     H          0.137297  
         H12       1.0000    0.28950   0.80280   0.36640   Biso      1.000     H          0.137298  
         H13       1.0000    0.71050   0.19720   0.63360   Biso      1.000     H          0.137287  
         H14       1.0000    0.49660   0.68880   0.43920   Biso      1.000     H          0.105325  
         H15       1.0000    0.21050   0.30280   0.13360   Biso      1.000     H          0.137489  
         H16       1.0000    0.28950   0.19720   0.86640   Biso      1.000     H          0.137283  
         O1        1.0000    0.36810   0.06100   0.88930   Biso      1.000     O          -0.357964           
         O2        1.0000    0.42240   0.45590   0.89370   Biso      1.000     O          -0.602053           
         O3        1.0000    0.56560   0.21790   0.07550   Biso      1.000     O          -0.549367           
         O4        1.0000    0.51800   0.10950   0.02020   Biso      1.000     O          -0.42371400000000004          
         O5        1.0000    0.38240   0.08830   0.15350   Biso      1.000     O          -0.535714           
         O6        1.0000    0.21890   0.70490   0.21840   Biso      1.000     O          -0.615015           
         O7        1.0000    0.27290   0.39570   0.79650   Biso      1.000     O          -0.484605           
         O8        1.0000    0.58950   0.41130   0.86300   Biso      1.000     O          -0.405168           
         O9        1.0000    0.57760   0.45590   0.60630   Biso      1.000     O          -0.602052           
         O10       1.0000    0.63190   0.06100   0.61070   Biso      1.000     O          -0.357986           
         O11       1.0000    0.61760   0.08830   0.34650   Biso      1.000     O          -0.53571  
         O12       1.0000    0.48200   0.10950   0.47980   Biso      1.000     O          -0.42372299999999996          
         O13       1.0000    0.43440   0.21790   0.42450   Biso      1.000     O          -0.549374           
         O14       1.0000    0.41050   0.41130   0.63700   Biso      1.000     O          -0.40516599999999997          
         O15       1.0000    0.28110   0.79510   0.78160   Biso      1.000     O          -0.614869           
         O16       1.0000    0.08950   0.91130   0.86300   Biso      1.000     O          -0.404955           
         O17       1.0000    0.07760   0.95590   0.60630   Biso      1.000     O          -0.602202           
         O18       1.0000    0.11760   0.58830   0.34650   Biso      1.000     O          -0.535539           
         O19       1.0000    0.98200   0.60950   0.47980   Biso      1.000     O          -0.42376899999999995          
         O20       1.0000    0.93440   0.71790   0.42450   Biso      1.000     O          -0.549273           
         O21       1.0000    0.21890   0.29510   0.71840   Biso      1.000     O          -0.6150220000000001           
         O22       1.0000    0.22710   0.89570   0.70350   Biso      1.000     O          -0.484642           
         O23       1.0000    0.13190   0.56100   0.61070   Biso      1.000     O          -0.357695           
         O24       1.0000    0.78110   0.29510   0.78160   Biso      1.000     O          -0.615016           
         O25       1.0000    0.86810   0.43900   0.38930   Biso      1.000     O          -0.35691999999999996          
         O26       1.0000    0.07760   0.04410   0.10630   Biso      1.000     O          -0.6021529999999999           
         O27       1.0000    0.71890   0.20490   0.21840   Biso      1.000     O          -0.614883           
         O28       1.0000    0.77290   0.10430   0.29650   Biso      1.000     O          -0.48455200000000004          
         O29       1.0000    0.91050   0.08870   0.13700   Biso      1.000     O          -0.40501  
         O30       1.0000    0.92240   0.04410   0.39370   Biso      1.000     O          -0.6021529999999999           
         O31       1.0000    0.08950   0.08870   0.36300   Biso      1.000     O          -0.405009           
         O32       1.0000    0.88240   0.41170   0.65350   Biso      1.000     O          -0.535139           
         O33       1.0000    0.01800   0.39050   0.52020   Biso      1.000     O          -0.423512           
         O34       1.0000    0.06560   0.28210   0.57550   Biso      1.000     O          -0.549175           
         O35       1.0000    0.22710   0.10430   0.20350   Biso      1.000     O          -0.484555           
         O36       1.0000    0.28110   0.20490   0.28160   Biso      1.000     O          -0.614885           
         O37       1.0000    0.78110   0.70490   0.28160   Biso      1.000     O          -0.615015           
         O38       1.0000    0.72710   0.60430   0.20350   Biso      1.000     O          -0.484662           
         O39       1.0000    0.58950   0.58870   0.36300   Biso      1.000     O          -0.405152           
         O40       1.0000    0.57760   0.54410   0.10630   Biso      1.000     O          -0.60206  
         O41       1.0000    0.63190   0.93900   0.11070   Biso      1.000     O          -0.357873           
         O42       1.0000    0.61760   0.91170   0.84650   Biso      1.000     O          -0.535636           
         O43       1.0000    0.48200   0.89050   0.97980   Biso      1.000     O          -0.423674           
         O44       1.0000    0.56560   0.78210   0.57550   Biso      1.000     O          -0.549322           
         O45       1.0000    0.13190   0.43900   0.11070   Biso      1.000     O          -0.3569   
         O46       1.0000    0.38240   0.91170   0.65350   Biso      1.000     O          -0.535629           
         O47       1.0000    0.71890   0.79510   0.71840   Biso      1.000     O          -0.61487  
         O48       1.0000    0.77290   0.89570   0.79650   Biso      1.000     O          -0.48464300000000005          
         O49       1.0000    0.91050   0.91130   0.63700   Biso      1.000     O          -0.404956           
         O50       1.0000    0.92240   0.95590   0.89370   Biso      1.000     O          -0.6022029999999999           
         O51       1.0000    0.86810   0.56100   0.88930   Biso      1.000     O          -0.35768  
         O52       1.0000    0.88240   0.58830   0.15350   Biso      1.000     O          -0.535552           
         O53       1.0000    0.01800   0.60950   0.02020   Biso      1.000     O          -0.42376400000000003          
         O54       1.0000    0.51800   0.89050   0.52020   Biso      1.000     O          -0.423662           
         O55       1.0000    0.06560   0.71790   0.07550   Biso      1.000     O          -0.549269           
         O56       1.0000    0.93440   0.28210   0.92450   Biso      1.000     O          -0.549177           
         O57       1.0000    0.72710   0.39570   0.70350   Biso      1.000     O          -0.484601           
         O58       1.0000    0.98200   0.39050   0.97980   Biso      1.000     O          -0.4235   
         O59       1.0000    0.11760   0.41170   0.84650   Biso      1.000     O          -0.5351670000000001           
         O60       1.0000    0.27290   0.60430   0.29650   Biso      1.000     O          -0.48466000000000004          
         O61       1.0000    0.41050   0.58870   0.13700   Biso      1.000     O          -0.40515300000000004          
         O62       1.0000    0.42240   0.54410   0.39370   Biso      1.000     O          -0.602059           
         O63       1.0000    0.36810   0.93900   0.38930   Biso      1.000     O          -0.357883           
         O64       1.0000    0.43440   0.78210   0.92450   Biso      1.000     O          -0.549327           
         Zn1       1.0000    0.85840   0.64483   0.35670   Biso      1.000     Zn          0.980108  
         Zn2       1.0000    0.58590   0.47672   0.36570   Biso      1.000     Zn          0.754423  
         Zn3       1.0000    0.08590   0.97672   0.36570   Biso      1.000     Zn          0.7555729999999999  
         Zn4       1.0000    0.14160   0.35517   0.64330   Biso      1.000     Zn          0.9802350000000001  
         Zn5       1.0000    0.85840   0.35517   0.85670   Biso      1.000     Zn          0.9802290000000001  
         Zn6       1.0000    0.64160   0.14483   0.14330   Biso      1.000     Zn          0.980202  
         Zn7       1.0000    0.91410   0.97672   0.13430   Biso      1.000     Zn          0.75557   
         Zn8       1.0000    0.41410   0.52328   0.63430   Biso      1.000     Zn          0.754482  
         Zn9       1.0000    0.14160   0.64483   0.14330   Biso      1.000     Zn          0.9801049999999999  
         Zn10      1.0000    0.41410   0.47672   0.13430   Biso      1.000     Zn          0.7544310000000001  
         Zn11      1.0000    0.08590   0.02328   0.86570   Biso      1.000     Zn          0.7553810000000001  
         Zn12      1.0000    0.35840   0.85517   0.85670   Biso      1.000     Zn          0.980176  
         Zn13      1.0000    0.64160   0.85517   0.64330   Biso      1.000     Zn          0.9801770000000001  
         Zn14      1.0000    0.91410   0.02328   0.63430   Biso      1.000     Zn          0.7553770000000001  
         Zn15      1.0000    0.58590   0.52328   0.86570   Biso      1.000     Zn          0.7544810000000001  
         Zn16      1.0000    0.35840   0.14483   0.35670   Biso      1.000     Zn          0.9802040000000001 