
##########################################################################
#               Crystallographic Information Format file
#               Produced by PyCifRW module
#
#  This is a CIF file.  CIF has been adopted by the International
#  Union of Crystallography as the standard for data archiving and
#  transmission.
#
#  For information on this file format, follow the CIF links at
#  http://www.iucr.org
##########################################################################

data_image0

_cell_length_a                          10.4163
_cell_length_b                          10.542
_cell_length_c                          17.0478
_cell_angle_alpha                       90
_cell_angle_beta                        95.854
_cell_angle_gamma                       90
_symmetry_space_group_name_H-M          'P 1'
_symmetry_int_tables_number             1
loop_
  _symmetry_equiv_pos_as_xyz
         'x, y, z' 
loop_
  _atom_site_label
  _atom_site_occupancy
  _atom_site_fract_x
  _atom_site_fract_y
  _atom_site_fract_z
  _atom_site_thermal_displace_type
  _atom_site_B_iso_or_equiv
  _atom_site_type_symbol
  _atom_site_charge
         C1        1.0000    0.95770   0.23130   0.11370   Biso      1.000     C          0.607759  
         C2        1.0000    0.27730   0.76230   0.37140   Biso      1.000     C          -0.113573           
         C3        1.0000    0.51600   0.78290   0.36350   Biso      1.000     C          0.576312  
         C4        1.0000    0.18990   0.96230   0.15390   Biso      1.000     C          0.618942  
         C5        1.0000    0.14870   0.71870   0.84170   Biso      1.000     C          -0.027024           
         C6        1.0000    0.12200   0.65370   0.77210   Biso      1.000     C          -0.113661           
         C7        1.0000    0.22030   0.60590   0.73130   Biso      1.000     C          -0.016813           
         C8        1.0000    0.34670   0.62450   0.76240   Biso      1.000     C          -0.100754           
         C9        1.0000    0.37690   0.69120   0.83160   Biso      1.000     C          -0.003673           
         C10       1.0000    0.27730   0.73770   0.87140   Biso      1.000     C          -0.113572           
         C11       1.0000    0.37690   0.80880   0.33160   Biso      1.000     C          -0.003675           
         C12       1.0000    0.51600   0.71710   0.86350   Biso      1.000     C          0.576311  
         C13       1.0000    0.95770   0.26870   0.61370   Biso      1.000     C          0.607759  
         C14       1.0000    0.85130   0.21870   0.65830   Biso      1.000     C          -0.027023           
         C15       1.0000    0.87800   0.15370   0.72790   Biso      1.000     C          -0.11366  
         C16       1.0000    0.77970   0.10590   0.76870   Biso      1.000     C          -0.016814           
         C17       1.0000    0.65330   0.12450   0.73760   Biso      1.000     C          -0.100754           
         C18       1.0000    0.62310   0.19120   0.66840   Biso      1.000     C          -0.003673           
         C19       1.0000    0.72270   0.23770   0.62860   Biso      1.000     C          -0.113573           
         C20       1.0000    0.48400   0.21710   0.63650   Biso      1.000     C          0.57631   
         C21       1.0000    0.81010   0.03770   0.84610   Biso      1.000     C          0.618942  
         C22       1.0000    0.18990   0.53770   0.65390   Biso      1.000     C          0.618942  
         C23       1.0000    0.34670   0.87550   0.26240   Biso      1.000     C          -0.100754           
         C24       1.0000    0.04230   0.76870   0.88630   Biso      1.000     C          0.60776   
         C25       1.0000    0.12200   0.84630   0.27210   Biso      1.000     C          -0.113666           
         C26       1.0000    0.14870   0.78130   0.34170   Biso      1.000     C          -0.027018           
         C27       1.0000    0.85130   0.28130   0.15830   Biso      1.000     C          -0.027024           
         C28       1.0000    0.04230   0.73130   0.38630   Biso      1.000     C          0.607759  
         C29       1.0000    0.87800   0.34630   0.22790   Biso      1.000     C          -0.11366  
         C30       1.0000    0.77970   0.39410   0.26870   Biso      1.000     C          -0.016813           
         C31       1.0000    0.65330   0.37550   0.23760   Biso      1.000     C          -0.100753           
         C32       1.0000    0.62310   0.30880   0.16840   Biso      1.000     C          -0.003673           
         C33       1.0000    0.72270   0.26230   0.12860   Biso      1.000     C          -0.113572           
         C34       1.0000    0.22030   0.89410   0.23130   Biso      1.000     C          -0.016811           
         C35       1.0000    0.48400   0.28290   0.13650   Biso      1.000     C          0.576311  
         C36       1.0000    0.81010   0.46230   0.34610   Biso      1.000     C          0.618942  
         Cd1       1.0000    0.75613   0.77479   0.92035   Biso      1.000     Cd          0.955651  
         Cd2       1.0000    0.24387   0.27479   0.57965   Biso      1.000     Cd          0.955651  
         Cd3       1.0000    0.24387   0.22521   0.07965   Biso      1.000     Cd          0.95565   
         Cd4       1.0000    0.00000   0.50000   0.50000   Biso      1.000     Cd          0.992635  
         Cd5       1.0000    0.75613   0.72521   0.42035   Biso      1.000     Cd          0.955652  
         Cd6       1.0000    0.00000   0.00000   0.00000   Biso      1.000     Cd          0.992635  
         H1        1.0000    0.03650   0.85850   0.25180   Biso      1.000     H          0.128465  
         H2        1.0000    0.58690   0.09130   0.76380   Biso      1.000     H          0.132908  
         H3        1.0000    0.70370   0.21790   0.08170   Biso      1.000     H          0.131004  
         H4        1.0000    0.96350   0.35850   0.24820   Biso      1.000     H          0.128464  
         H5        1.0000    0.70370   0.28210   0.58170   Biso      1.000     H          0.131005  
         H6        1.0000    0.29630   0.71790   0.41830   Biso      1.000     H          0.131004  
         H7        1.0000    0.41310   0.90870   0.23620   Biso      1.000     H          0.132908  
         H8        1.0000    0.96350   0.14150   0.74820   Biso      1.000     H          0.128464  
         H9        1.0000    0.58690   0.40870   0.26380   Biso      1.000     H          0.132908  
         H10       1.0000    0.29630   0.78210   0.91830   Biso      1.000     H          0.131004  
         H11       1.0000    0.41310   0.59130   0.73620   Biso      1.000     H          0.132908  
         H12       1.0000    0.03650   0.64150   0.75180   Biso      1.000     H          0.128464  
         O1        1.0000    0.39710   0.18580   0.67900   Biso      1.000     O          -0.550686           
         O2        1.0000    0.91980   0.44270   0.37970   Biso      1.000     O          -0.556322           
         O3        1.0000    0.46290   0.26530   0.57050   Biso      1.000     O          -0.517881           
         O4        1.0000    0.72350   0.97000   0.86890   Biso      1.000     O          -0.550428           
         O5        1.0000    0.91980   0.05730   0.87970   Biso      1.000     O          -0.556322           
         O6        1.0000    0.92990   0.75400   0.35740   Biso      1.000     O          -0.515025           
         O7        1.0000    0.92530   0.32420   0.54980   Biso      1.000     O          -0.581517           
         O8        1.0000    0.07010   0.24600   0.64260   Biso      1.000     O          -0.515025           
         O9        1.0000    0.46290   0.23470   0.07050   Biso      1.000     O          -0.517881           
         O10       1.0000    0.72350   0.53000   0.36890   Biso      1.000     O          -0.550428           
         O11       1.0000    0.08020   0.55730   0.62030   Biso      1.000     O          -0.556322           
         O12       1.0000    0.27650   0.47000   0.63110   Biso      1.000     O          -0.550428           
         O13       1.0000    0.53710   0.76530   0.92950   Biso      1.000     O          -0.517881           
         O14       1.0000    0.60290   0.68580   0.82100   Biso      1.000     O          -0.550686           
         O15       1.0000    0.07470   0.82420   0.95020   Biso      1.000     O          -0.581517           
         O16       1.0000    0.92990   0.74600   0.85740   Biso      1.000     O          -0.515025           
         O17       1.0000    0.53710   0.73470   0.42950   Biso      1.000     O          -0.517881           
         O18       1.0000    0.27650   0.03000   0.13110   Biso      1.000     O          -0.550428           
         O19       1.0000    0.08020   0.94270   0.12030   Biso      1.000     O          -0.556322           
         O20       1.0000    0.07010   0.25400   0.14260   Biso      1.000     O          -0.515025           
         O21       1.0000    0.92530   0.17580   0.04980   Biso      1.000     O          -0.581517           
         O22       1.0000    0.39710   0.31420   0.17900   Biso      1.000     O          -0.550687           
         O23       1.0000    0.07470   0.67580   0.45020   Biso      1.000     O          -0.581517           
         O24       1.0000    0.60290   0.81420   0.32100   Biso      1.000     O          -0.550687 