
##########################################################################
#               Crystallographic Information Format file
#               Produced by PyCifRW module
#
#  This is a CIF file.  CIF has been adopted by the International
#  Union of Crystallography as the standard for data archiving and
#  transmission.
#
#  For information on this file format, follow the CIF links at
#  http://www.iucr.org
##########################################################################

data_image0

_cell_length_a                          8.5773
_cell_length_b                          12.1397
_cell_length_c                          16.7281
_cell_angle_alpha                       90
_cell_angle_beta                        90
_cell_angle_gamma                       93.036
_symmetry_space_group_name_H-M          'P 1'
_symmetry_int_tables_number             1
loop_
  _symmetry_equiv_pos_as_xyz
         'x, y, z' 
loop_
  _atom_site_label
  _atom_site_occupancy
  _atom_site_fract_x
  _atom_site_fract_y
  _atom_site_fract_z
  _atom_site_thermal_displace_type
  _atom_site_B_iso_or_equiv
  _atom_site_type_symbol
  _atom_site_charge
         C1        1.0000    0.67020   0.74500   0.33370   Biso      1.000     C          -0.230283           
         C2        1.0000    0.51760   0.86770   0.25210   Biso      1.000     C          0.583002  
         C3        1.0000    0.25970   0.63140   0.46670   Biso      1.000     C          0.631828  
         C4        1.0000    0.82050   0.60510   0.40770   Biso      1.000     C          0.62613   
         C5        1.0000    0.53320   0.82040   0.33580   Biso      1.000     C          -0.087364           
         C6        1.0000    0.38510   0.75680   0.36380   Biso      1.000     C          -0.22200100000000003          
         C7        1.0000    0.40500   0.70280   0.44510   Biso      1.000     C          -0.085569           
         C8        1.0000    0.17020   0.24500   0.16630   Biso      1.000     C          -0.23028200000000001          
         C9        1.0000    0.54510   0.62600   0.44170   Biso      1.000     C          -0.23026799999999997          
         C10       1.0000    0.98240   0.63230   0.75210   Biso      1.000     C          0.583     
         C11       1.0000    0.24030   0.86860   0.96670   Biso      1.000     C          0.631827  
         C12       1.0000    0.67950   0.89490   0.90770   Biso      1.000     C          0.62613   
         C13       1.0000    0.96680   0.67960   0.83580   Biso      1.000     C          -0.087364           
         C14       1.0000    0.11490   0.74320   0.86380   Biso      1.000     C          -0.22200100000000003          
         C15       1.0000    0.09500   0.79720   0.94510   Biso      1.000     C          -0.08556799999999999          
         C16       1.0000    0.69680   0.68940   0.41340   Biso      1.000     C          -0.093752           
         C17       1.0000    0.80320   0.81060   0.91340   Biso      1.000     C          -0.093752           
         C18       1.0000    0.19680   0.18940   0.08660   Biso      1.000     C          -0.093752           
         C19       1.0000    0.90500   0.20280   0.05490   Biso      1.000     C          -0.08557000000000001          
         C20       1.0000    0.48240   0.13230   0.74790   Biso      1.000     C          0.5829979999999999  
         C21       1.0000    0.74030   0.36860   0.53330   Biso      1.000     C          0.631828  
         C22       1.0000    0.17950   0.39490   0.59230   Biso      1.000     C          0.62613   
         C23       1.0000    0.46680   0.17960   0.66420   Biso      1.000     C          -0.087364           
         C24       1.0000    0.61490   0.24320   0.63620   Biso      1.000     C          -0.222    
         C25       1.0000    0.59500   0.29720   0.55490   Biso      1.000     C          -0.08557100000000001          
         C26       1.0000    0.04510   0.12600   0.05830   Biso      1.000     C          -0.23026799999999997          
         C27       1.0000    0.45490   0.37400   0.55830   Biso      1.000     C          -0.230267           
         C28       1.0000    0.32980   0.25500   0.66630   Biso      1.000     C          -0.230283           
         C29       1.0000    0.01760   0.36770   0.24790   Biso      1.000     C          0.5829989999999999  
         C30       1.0000    0.75970   0.13140   0.03330   Biso      1.000     C          0.631828  
         C31       1.0000    0.32050   0.10510   0.09230   Biso      1.000     C          0.626129  
         C32       1.0000    0.03320   0.32040   0.16420   Biso      1.000     C          -0.087364           
         C33       1.0000    0.88510   0.25680   0.13620   Biso      1.000     C          -0.222    
         C34       1.0000    0.30320   0.31060   0.58660   Biso      1.000     C          -0.093753           
         C35       1.0000    0.82980   0.75500   0.83370   Biso      1.000     C          -0.230283           
         C36       1.0000    0.95490   0.87400   0.94170   Biso      1.000     C          -0.23026799999999997          
         H1        1.0000    0.57600   0.24000   0.51400   Biso      1.000     H          0.098317  
         H2        1.0000    0.30090   0.80700   0.36690   Biso      1.000     H          0.11784800000000001           
         H3        1.0000    0.42400   0.76000   0.48600   Biso      1.000     H          0.098316  
         H4        1.0000    0.52030   0.56540   0.40530   Biso      1.000     H          0.124076  
         H5        1.0000    0.47970   0.43460   0.59470   Biso      1.000     H          0.124076  
         H6        1.0000    0.72900   0.74500   0.45300   Biso      1.000     H          0.095725  
         H7        1.0000    0.76420   0.78810   0.31870   Biso      1.000     H          0.119871  
         H8        1.0000    0.65070   0.68890   0.29320   Biso      1.000     H          0.121572  
         H9        1.0000    0.35600   0.70030   0.32480   Biso      1.000     H          0.12918   
         H10       1.0000    0.94200   0.61900   0.87300   Biso      1.000     H          0.094683  
         H11       1.0000    0.19910   0.69300   0.86690   Biso      1.000     H          0.11784800000000001           
         H12       1.0000    0.07600   0.74000   0.98600   Biso      1.000     H          0.098316  
         H13       1.0000    0.97970   0.93460   0.90530   Biso      1.000     H          0.124076  
         H14       1.0000    0.93810   0.90480   0.99430   Biso      1.000     H          0.113052  
         H15       1.0000    0.77100   0.75500   0.95300   Biso      1.000     H          0.095725  
         H16       1.0000    0.73580   0.71190   0.81870   Biso      1.000     H          0.119871  
         H17       1.0000    0.84930   0.81110   0.79320   Biso      1.000     H          0.121572  
         H18       1.0000    0.14400   0.79970   0.82480   Biso      1.000     H          0.129179  
         H19       1.0000    0.55800   0.88100   0.37300   Biso      1.000     H          0.094683  
         H20       1.0000    0.56190   0.59520   0.49430   Biso      1.000     H          0.113052  
         H21       1.0000    0.26420   0.28810   0.18130   Biso      1.000     H          0.119871  
         H22       1.0000    0.69910   0.19300   0.63310   Biso      1.000     H          0.11784800000000001           
         H23       1.0000    0.64400   0.29970   0.67520   Biso      1.000     H          0.129179  
         H24       1.0000    0.15070   0.18890   0.20680   Biso      1.000     H          0.121572  
         H25       1.0000    0.43810   0.40480   0.50570   Biso      1.000     H          0.113052  
         H26       1.0000    0.27100   0.25500   0.54700   Biso      1.000     H          0.095725  
         H27       1.0000    0.23580   0.21190   0.68130   Biso      1.000     H          0.119871  
         H28       1.0000    0.34930   0.31110   0.70680   Biso      1.000     H          0.121572  
         H29       1.0000    0.44200   0.11900   0.62700   Biso      1.000     H          0.094683  
         H30       1.0000    0.85600   0.20030   0.17520   Biso      1.000     H          0.129179  
         H31       1.0000    0.80090   0.30700   0.13310   Biso      1.000     H          0.11784800000000001           
         H32       1.0000    0.92400   0.26000   0.01400   Biso      1.000     H          0.098316  
         H33       1.0000    0.02030   0.06540   0.09470   Biso      1.000     H          0.124076  
         H34       1.0000    0.06190   0.09520   0.00570   Biso      1.000     H          0.113052  
         H35       1.0000    0.22900   0.24500   0.04700   Biso      1.000     H          0.095725  
         H36       1.0000    0.05800   0.38100   0.12700   Biso      1.000     H          0.094684  
         O1        1.0000    0.42680   0.81950   0.20210   Biso      1.000     O          -0.522474           
         O2        1.0000    0.33820   0.05100   0.15370   Biso      1.000     O          -0.506426           
         O3        1.0000    0.40540   0.08700   0.03100   Biso      1.000     O          -0.652512           
         O4        1.0000    0.71370   0.06030   0.08400   Biso      1.000     O          -0.536978           
         O5        1.0000    0.69700   0.14610   0.96570   Biso      1.000     O          -0.508867           
         O6        1.0000    0.78630   0.43970   0.58400   Biso      1.000     O          -0.53698  
         O7        1.0000    0.92680   0.31950   0.29790   Biso      1.000     O          -0.522471           
         O8        1.0000    0.80300   0.35390   0.46570   Biso      1.000     O          -0.508866           
         O9        1.0000    0.09460   0.41300   0.53100   Biso      1.000     O          -0.652513           
         O10       1.0000    0.16180   0.44900   0.65370   Biso      1.000     O          -0.506425           
         O11       1.0000    0.60320   0.94980   0.23210   Biso      1.000     O          -0.481813           
         O12       1.0000    0.10320   0.44980   0.26790   Biso      1.000     O          -0.48181199999999996          
         O13       1.0000    0.19700   0.64610   0.53430   Biso      1.000     O          -0.508868           
         O14       1.0000    0.57320   0.18050   0.79790   Biso      1.000     O          -0.52247  
         O15       1.0000    0.90540   0.58700   0.46900   Biso      1.000     O          -0.652513           
         O16       1.0000    0.83820   0.55100   0.34630   Biso      1.000     O          -0.5064270000000001           
         O17       1.0000    0.07320   0.68050   0.70210   Biso      1.000     O          -0.52247  
         O18       1.0000    0.89680   0.55020   0.73210   Biso      1.000     O          -0.48181199999999996          
         O19       1.0000    0.30300   0.85390   0.03430   Biso      1.000     O          -0.508866           
         O20       1.0000    0.28630   0.93970   0.91600   Biso      1.000     O          -0.536979           
         O21       1.0000    0.59460   0.91300   0.96900   Biso      1.000     O          -0.652512           
         O22       1.0000    0.66180   0.94900   0.84630   Biso      1.000     O          -0.5064270000000001           
         O23       1.0000    0.39680   0.05020   0.76790   Biso      1.000     O          -0.48181  
         O24       1.0000    0.21370   0.56030   0.41600   Biso      1.000     O          -0.536977           
         Yb1       1.0000    0.98160   0.56883   0.59803   Biso      1.000     Yb          1.303022  
         Yb2       1.0000    0.51840   0.93117   0.09803   Biso      1.000     Yb          1.303023  
         Yb3       1.0000    0.01840   0.43117   0.40197   Biso      1.000     Yb          1.303023  
         Yb4       1.0000    0.48160   0.06883   0.90197   Biso      1.000     Yb          1.303023 