
##########################################################################
#               Crystallographic Information Format file
#               Produced by PyCifRW module
#
#  This is a CIF file.  CIF has been adopted by the International
#  Union of Crystallography as the standard for data archiving and
#  transmission.
#
#  For information on this file format, follow the CIF links at
#  http://www.iucr.org
##########################################################################

data_image0

_cell_length_a                          12.608
_cell_length_b                          14.2145
_cell_length_c                          14.898
_cell_angle_alpha                       69.321
_cell_angle_beta                        67.503
_cell_angle_gamma                       78.329
_symmetry_space_group_name_H-M          'P 1'
_symmetry_int_tables_number             1
loop_
  _symmetry_equiv_pos_as_xyz
         'x, y, z' 
loop_
  _atom_site_label
  _atom_site_occupancy
  _atom_site_fract_x
  _atom_site_fract_y
  _atom_site_fract_z
  _atom_site_thermal_displace_type
  _atom_site_B_iso_or_equiv
  _atom_site_type_symbol
  _atom_site_charge
         C1        1.0000    0.20240   0.38010   0.91230   Biso      1.000     C          -0.135207           
         C2        1.0000    0.92240   0.12280   0.43570   Biso      1.000     C          -0.10886300000000002          
         C3        1.0000    0.26500   0.10290   0.44560   Biso      1.000     C          -0.139982           
         C4        1.0000    0.60430   0.08130   0.81680   Biso      1.000     C          -0.121728           
         C5        1.0000    0.44790   0.08820   0.59920   Biso      1.000     C          -0.095433           
         C6        1.0000    0.69060   0.63090   0.08660   Biso      1.000     C          -0.063717           
         C7        1.0000    0.19490   0.75170   0.48890   Biso      1.000     C          -0.093586           
         C8        1.0000    0.82260   0.79190   0.44510   Biso      1.000     C          0.062311  
         C9        1.0000    0.08890   0.23110   0.63880   Biso      1.000     C          -0.074625           
         C10       1.0000    0.46830   0.70520   0.71420   Biso      1.000     C          0.125746  
         C11       1.0000    0.86700   0.70180   0.03320   Biso      1.000     C          0.112863  
         C12       1.0000    0.18100   0.37860   0.59680   Biso      1.000     C          0.131179  
         C13       1.0000    0.43120   0.08680   0.08140   Biso      1.000     C          0.048092  
         C14       1.0000    0.53510   0.21500   0.25090   Biso      1.000     C          -0.130167           
         C15       1.0000    0.28540   0.93570   0.17800   Biso      1.000     C          0.11946400000000001           
         C16       1.0000    0.18200   0.12140   0.52540   Biso      1.000     C          -0.11895499999999999          
         C17       1.0000    0.09080   0.31540   0.65950   Biso      1.000     C          -0.12524100000000002          
         C18       1.0000    0.35870   0.16740   0.38590   Biso      1.000     C          0.055411  
         C19       1.0000    0.87710   0.16090   0.51820   Biso      1.000     C          -0.099011           
         C20       1.0000    0.79760   0.61990   0.08770   Biso      1.000     C          -0.13517200000000001          
         C21       1.0000    0.12290   0.83910   0.48180   Biso      1.000     C          -0.099008           
         C22       1.0000    0.89350   0.17170   0.34760   Biso      1.000     C          -0.016566           
         C23       1.0000    0.71460   0.06430   0.82200   Biso      1.000     C          0.119466  
         C24       1.0000    0.56880   0.91320   0.91860   Biso      1.000     C          0.048089  
         C25       1.0000    0.53440   0.73990   0.02480   Biso      1.000     C          -0.114514           
         C26       1.0000    0.27830   0.19760   0.02150   Biso      1.000     C          0.12926600000000002           
         C27       1.0000    0.49740   0.82880   0.97260   Biso      1.000     C          -0.140239           
         C28       1.0000    0.35250   0.27670   0.96970   Biso      1.000     C          0.06143   
         C29       1.0000    0.78260   0.31720   0.83810   Biso      1.000     C          -0.137595           
         C30       1.0000    0.70610   0.40170   0.84060   Biso      1.000     C          -0.0071400000000000005        
         C31       1.0000    0.90200   0.17320   0.91810   Biso      1.000     C          0.644275  
         C32       1.0000    0.34100   0.18180   0.74960   Biso      1.000     C          -0.142622           
         C33       1.0000    0.42920   0.22690   0.66160   Biso      1.000     C          -0.00885  
         C34       1.0000    0.82740   0.26970   0.91730   Biso      1.000     C          -0.036266           
         C35       1.0000    0.48340   0.17980   0.58690   Biso      1.000     C          -0.11918  
         C36       1.0000    0.94740   0.13110   0.25880   Biso      1.000     C          0.584268  
         C37       1.0000    0.20040   0.04700   0.84900   Biso      1.000     C          0.656522  
         C38       1.0000    0.30020   0.09380   0.75810   Biso      1.000     C          -0.016354           
         C39       1.0000    0.35270   0.04850   0.68150   Biso      1.000     C          -0.123786           
         C40       1.0000    0.53170   0.29480   0.28580   Biso      1.000     C          0.125745  
         C41       1.0000    0.65430   0.44760   0.75780   Biso      1.000     C          0.586912  
         C42       1.0000    0.81880   0.25780   0.34320   Biso      1.000     C          -0.136105           
         C43       1.0000    0.73460   0.72450   0.50290   Biso      1.000     C          0.119401  
         C44       1.0000    0.79910   0.30980   0.99650   Biso      1.000     C          -0.10778399999999999          
         C45       1.0000    0.67490   0.44050   0.92180   Biso      1.000     C          -0.10903  
         C46       1.0000    0.72250   0.39510   0.99950   Biso      1.000     C          -0.096897           
         C47       1.0000    0.64150   0.74680   0.58690   Biso      1.000     C          0.131679  
         C48       1.0000    0.77430   0.29790   0.42410   Biso      1.000     C          -0.030135000000000002         
         C49       1.0000    0.47030   0.99040   0.13450   Biso      1.000     C          -0.08854400000000001          
         C50       1.0000    0.52970   0.00960   0.86550   Biso      1.000     C          -0.08852  
         C51       1.0000    0.31850   0.10240   0.07710   Biso      1.000     C          0.12411300000000001           
         C52       1.0000    0.44860   0.15090   0.30200   Biso      1.000     C          -0.091429           
         C53       1.0000    0.46580   0.32840   0.64470   Biso      1.000     C          0.619975  
         C54       1.0000    0.17740   0.20810   0.55490   Biso      1.000     C          0.062311  
         C55       1.0000    0.69590   0.39290   0.42000   Biso      1.000     C          0.6440899999999999  
         C56       1.0000    0.55210   0.91180   0.40080   Biso      1.000     C          -0.095432           
         C57       1.0000    0.51660   0.82020   0.41310   Biso      1.000     C          -0.119181           
         C58       1.0000    0.09800   0.82680   0.08190   Biso      1.000     C          0.644275  
         C59       1.0000    0.10650   0.82830   0.65240   Biso      1.000     C          -0.016569           
         C60       1.0000    0.30410   0.60710   0.58000   Biso      1.000     C          0.644089  
         C61       1.0000    0.64130   0.83260   0.61410   Biso      1.000     C          0.055412  
         C62       1.0000    0.21740   0.68280   0.16190   Biso      1.000     C          -0.137595           
         C63       1.0000    0.29390   0.59830   0.15940   Biso      1.000     C          -0.0071400000000000005        
         C64       1.0000    0.65900   0.81820   0.25040   Biso      1.000     C          -0.142621           
         C65       1.0000    0.57080   0.77310   0.33840   Biso      1.000     C          -0.008849           
         C66       1.0000    0.17260   0.73030   0.08270   Biso      1.000     C          -0.036266           
         C67       1.0000    0.91110   0.76890   0.36120   Biso      1.000     C          -0.074625           
         C68       1.0000    0.80510   0.24830   0.51110   Biso      1.000     C          -0.09358  
         C69       1.0000    0.79960   0.95300   0.15100   Biso      1.000     C          0.656522  
         C70       1.0000    0.69980   0.90620   0.24190   Biso      1.000     C          -0.016353           
         C71       1.0000    0.30940   0.36910   0.91340   Biso      1.000     C          -0.06368099999999999          
         C72       1.0000    0.53420   0.67160   0.35530   Biso      1.000     C          0.619975  
         C73       1.0000    0.39570   0.91870   0.18320   Biso      1.000     C          -0.12170399999999999          
         C74       1.0000    0.73500   0.89710   0.55440   Biso      1.000     C          -0.139983           
         C75       1.0000    0.46560   0.26010   0.97520   Biso      1.000     C          -0.114515           
         C76       1.0000    0.50260   0.17120   0.02740   Biso      1.000     C          -0.140238           
         C77       1.0000    0.55140   0.84910   0.69800   Biso      1.000     C          -0.091437           
         C78       1.0000    0.81900   0.62140   0.40320   Biso      1.000     C          0.131179  
         C79       1.0000    0.05260   0.86890   0.74120   Biso      1.000     C          0.584268  
         C80       1.0000    0.13300   0.29820   0.96680   Biso      1.000     C          0.11286700000000001           
         C81       1.0000    0.64730   0.95150   0.31850   Biso      1.000     C          -0.123786           
         C82       1.0000    0.22570   0.70210   0.57590   Biso      1.000     C          -0.030135000000000002         
         C83       1.0000    0.35850   0.25320   0.41310   Biso      1.000     C          0.131678  
         C84       1.0000    0.68150   0.89760   0.92290   Biso      1.000     C          0.12411400000000002           
         C85       1.0000    0.64750   0.72330   0.03030   Biso      1.000     C          0.061434  
         C86       1.0000    0.72170   0.80240   0.97850   Biso      1.000     C          0.12926600000000002           
         C87       1.0000    0.27750   0.60490   0.00050   Biso      1.000     C          -0.096899           
         C88       1.0000    0.81800   0.87860   0.47460   Biso      1.000     C          -0.11895499999999999          
         C89       1.0000    0.07760   0.87720   0.56430   Biso      1.000     C          -0.108859           
         C90       1.0000    0.32510   0.55950   0.07820   Biso      1.000     C          -0.10903  
         C91       1.0000    0.26540   0.27550   0.49710   Biso      1.000     C          0.119401  
         C92       1.0000    0.46490   0.78500   0.74910   Biso      1.000     C          -0.130162           
         C93       1.0000    0.18120   0.74220   0.65680   Biso      1.000     C          -0.136101           
         C94       1.0000    0.90920   0.68460   0.34050   Biso      1.000     C          -0.12524100000000002          
         C95       1.0000    0.34570   0.55240   0.24220   Biso      1.000     C          0.586913  
         C96       1.0000    0.20090   0.69020   0.00350   Biso      1.000     C          -0.10778199999999999          
         H1        1.0000    0.51420   0.31230   0.94180   Biso      1.000     H          0.118193  
         H2        1.0000    0.32390   0.99130   0.68550   Biso      1.000     H          0.11818   
         H3        1.0000    0.17390   0.44110   0.87610   Biso      1.000     H          0.129386  
         H4        1.0000    0.73670   0.95280   0.57260   Biso      1.000     H          0.12324700000000001           
         H5        1.0000    0.57690   0.16280   0.02930   Biso      1.000     H          0.122018  
         H6        1.0000    0.54320   0.20920   0.52880   Biso      1.000     H          0.11308399999999999           
         H7        1.0000    0.41830   0.85590   0.22150   Biso      1.000     H          0.11849000000000001           
         H8        1.0000    0.54970   0.90350   0.71950   Biso      1.000     H          0.11366   
         H9        1.0000    0.35620   0.42260   0.87680   Biso      1.000     H          0.12657000000000002           
         H10       1.0000    0.83140   0.27970   0.04770   Biso      1.000     H          0.124802  
         H11       1.0000    0.77640   0.27480   0.56540   Biso      1.000     H          0.119271  
         H12       1.0000    0.79800   0.28930   0.28530   Biso      1.000     H          0.122975  
         H13       1.0000    0.48810   0.05340   0.55200   Biso      1.000     H          0.10634500000000001           
         H14       1.0000    0.96680   0.66820   0.28550   Biso      1.000     H          0.122848  
         H15       1.0000    0.62250   0.49670   0.92440   Biso      1.000     H          0.11781400000000002           
         H16       1.0000    0.97010   0.81150   0.32070   Biso      1.000     H          0.127628  
         H17       1.0000    0.70290   0.42180   0.05300   Biso      1.000     H          0.10999500000000001           
         H18       1.0000    0.23670   0.88350   0.21220   Biso      1.000     H          0.099647  
         H19       1.0000    0.05850   0.30680   0.96540   Biso      1.000     H          0.094313  
         H20       1.0000    0.87540   0.92320   0.43640   Biso      1.000     H          0.123297  
         H21       1.0000    0.81900   0.56360   0.38750   Biso      1.000     H          0.09439199999999999           
         H22       1.0000    0.40730   0.66410   0.74750   Biso      1.000     H          0.092596  
         H23       1.0000    0.97220   0.06470   0.43910   Biso      1.000     H          0.11234300000000001           
         H24       1.0000    0.40470   0.79460   0.80630   Biso      1.000     H          0.12113299999999999           
         H25       1.0000    0.89520   0.12790   0.57720   Biso      1.000     H          0.112854  
         H26       1.0000    0.45480   0.02270   0.86450   Biso      1.000     H          0.12279000000000001           
         H27       1.0000    0.54520   0.97730   0.13550   Biso      1.000     H          0.12279200000000001           
         H28       1.0000    0.80440   0.29170   0.78350   Biso      1.000     H          0.12618   
         H29       1.0000    0.22360   0.72520   0.43460   Biso      1.000     H          0.119272  
         H30       1.0000    0.02990   0.18850   0.67930   Biso      1.000     H          0.127628  
         H31       1.0000    0.94150   0.69320   0.03460   Biso      1.000     H          0.094314  
         H32       1.0000    0.18100   0.43640   0.61250   Biso      1.000     H          0.09439299999999999           
         H33       1.0000    0.59530   0.20540   0.19370   Biso      1.000     H          0.12113399999999999           
         H34       1.0000    0.12460   0.07680   0.56360   Biso      1.000     H          0.123297  
         H35       1.0000    0.03320   0.33180   0.71450   Biso      1.000     H          0.122848  
         H36       1.0000    0.10480   0.87210   0.42280   Biso      1.000     H          0.112854  
         H37       1.0000    0.76330   0.11650   0.78780   Biso      1.000     H          0.099647  
         H38       1.0000    0.64380   0.57740   0.12320   Biso      1.000     H          0.126572  
         H39       1.0000    0.59270   0.33590   0.25250   Biso      1.000     H          0.092596  
         H40       1.0000    0.02780   0.93530   0.56090   Biso      1.000     H          0.11234300000000001           
         H41       1.0000    0.29710   0.57820   0.94700   Biso      1.000     H          0.10999500000000001           
         H42       1.0000    0.37750   0.50330   0.07560   Biso      1.000     H          0.11781400000000002           
         H43       1.0000    0.16860   0.72030   0.95230   Biso      1.000     H          0.124802  
         H44       1.0000    0.20200   0.71070   0.71470   Biso      1.000     H          0.122975  
         H45       1.0000    0.67610   0.00870   0.31450   Biso      1.000     H          0.11818   
         H46       1.0000    0.45680   0.79080   0.47120   Biso      1.000     H          0.11308399999999999           
         H47       1.0000    0.19560   0.70830   0.21650   Biso      1.000     H          0.126181  
         H48       1.0000    0.69050   0.78960   0.19750   Biso      1.000     H          0.117873  
         H49       1.0000    0.51190   0.94660   0.44800   Biso      1.000     H          0.10634400000000001           
         H50       1.0000    0.58170   0.14410   0.77850   Biso      1.000     H          0.11849200000000001           
         H51       1.0000    0.82610   0.55890   0.12390   Biso      1.000     H          0.129383  
         H52       1.0000    0.48580   0.68770   0.05820   Biso      1.000     H          0.118193  
         H53       1.0000    0.42310   0.83720   0.97070   Biso      1.000     H          0.122018  
         H54       1.0000    0.45030   0.09650   0.28050   Biso      1.000     H          0.11366   
         H55       1.0000    0.30950   0.21040   0.80250   Biso      1.000     H          0.117873  
         H56       1.0000    0.26330   0.04720   0.42740   Biso      1.000     H          0.12324600000000001           
         N1        1.0000    0.26480   0.36130   0.51810   Biso      1.000     N          -0.34542  
         N2        1.0000    0.75290   0.97560   0.87450   Biso      1.000     N          -0.350246           
         N3        1.0000    0.83110   0.79150   0.97940   Biso      1.000     N          -0.358824           
         N4        1.0000    0.16890   0.20850   0.02060   Biso      1.000     N          -0.358824           
         N5        1.0000    0.24710   0.02440   0.12550   Biso      1.000     N          -0.350245           
         N6        1.0000    0.73520   0.63870   0.48190   Biso      1.000     N          -0.34542  
         N7        1.0000    0.44590   0.31520   0.36410   Biso      1.000     N          -0.364119           
         N8        1.0000    0.55410   0.68480   0.63590   Biso      1.000     N          -0.364119           
         O1        1.0000    0.69180   0.43770   0.48080   Biso      1.000     O          -0.652597           
         O2        1.0000    0.44470   0.50870   0.22300   Biso      1.000     O          -0.63536  
         O3        1.0000    0.07090   0.82040   0.82380   Biso      1.000     O          -0.63937  
         O4        1.0000    0.53060   0.60440   0.44060   Biso      1.000     O          -0.744703           
         O5        1.0000    0.80400   0.95280   0.06490   Biso      1.000     O          -0.685641           
         O6        1.0000    0.87000   0.98800   0.16830   Biso      1.000     O          -0.650436           
         O7        1.0000    0.36390   0.58180   0.63730   Biso      1.000     O          -0.6580729999999999           
         O8        1.0000    0.30820   0.56230   0.51920   Biso      1.000     O          -0.652597           
         O9        1.0000    0.99150   0.95100   0.73180   Biso      1.000     O          -0.646181           
         O10       1.0000    0.03680   0.85540   0.02520   Biso      1.000     O          -0.703533           
         O11       1.0000    0.50700   0.65450   0.29100   Biso      1.000     O          -0.5848399999999999           
         O12       1.0000    0.63610   0.41820   0.36270   Biso      1.000     O          -0.6580729999999999           
         O13       1.0000    0.28750   0.55970   0.32960   Biso      1.000     O          -0.637363           
         O14       1.0000    0.55530   0.49130   0.77700   Biso      1.000     O          -0.635361           
         O15       1.0000    0.92910   0.17960   0.17620   Biso      1.000     O          -0.63937  
         O16       1.0000    0.46940   0.39560   0.55940   Biso      1.000     O          -0.744703           
         O17       1.0000    0.19600   0.04720   0.93510   Biso      1.000     O          -0.685641           
         O18       1.0000    0.89920   0.12410   0.86430   Biso      1.000     O          -0.641346           
         O19       1.0000    0.71250   0.44030   0.67040   Biso      1.000     O          -0.637362           
         O20       1.0000    0.13000   0.01200   0.83170   Biso      1.000     O          -0.650436           
         O21       1.0000    0.49300   0.34550   0.70900   Biso      1.000     O          -0.5848409999999999           
         O22       1.0000    0.96320   0.14460   0.97480   Biso      1.000     O          -0.703533           
         O23       1.0000    0.00850   0.04900   0.26820   Biso      1.000     O          -0.646181           
         O24       1.0000    0.10080   0.87590   0.13570   Biso      1.000     O          -0.641346           
         Tb1       1.0000    0.05119   0.05389   0.09337   Biso      1.000     Tb          1.9631580000000002  
         Tb2       1.0000    0.56446   0.51861   0.59595   Biso      1.000     Tb          1.9554490000000002  
         Tb3       1.0000    0.94881   0.94611   0.90663   Biso      1.000     Tb          1.963159  
         Tb4       1.0000    0.43554   0.48139   0.40405   Biso      1.000     Tb          1.9554479999999999 