
##########################################################################
#               Crystallographic Information Format file
#               Produced by PyCifRW module
#
#  This is a CIF file.  CIF has been adopted by the International
#  Union of Crystallography as the standard for data archiving and
#  transmission.
#
#  For information on this file format, follow the CIF links at
#  http://www.iucr.org
##########################################################################

data_image0

_cell_length_a                          12.6176
_cell_length_b                          14.198
_cell_length_c                          14.896
_cell_angle_alpha                       69.221
_cell_angle_beta                        67.598
_cell_angle_gamma                       78.395
_symmetry_space_group_name_H-M          'P 1'
_symmetry_int_tables_number             1
loop_
  _symmetry_equiv_pos_as_xyz
         'x, y, z' 
loop_
  _atom_site_label
  _atom_site_occupancy
  _atom_site_fract_x
  _atom_site_fract_y
  _atom_site_fract_z
  _atom_site_thermal_displace_type
  _atom_site_B_iso_or_equiv
  _atom_site_type_symbol
  _atom_site_charge
         C1        1.0000    0.14180   0.83240   0.61410   Biso      1.000     C          0.055847  
         C2        1.0000    0.05110   0.84860   0.69810   Biso      1.000     C          -0.09185399999999999          
         C3        1.0000    0.96580   0.78440   0.74950   Biso      1.000     C          -0.129393           
         C4        1.0000    0.30590   0.24800   0.51090   Biso      1.000     C          -0.09496900000000001          
         C5        1.0000    0.03530   0.74040   0.02430   Biso      1.000     C          -0.117191           
         C6        1.0000    0.19070   0.63010   0.08720   Biso      1.000     C          -0.063501           
         C7        1.0000    0.68110   0.37810   0.59710   Biso      1.000     C          0.128629  
         C8        1.0000    0.62300   0.83860   0.48190   Biso      1.000     C          -0.099514           
         C9        1.0000    0.21410   0.06420   0.82240   Biso      1.000     C          0.11591900000000001           
         C10       1.0000    0.77750   0.60500   0.00090   Biso      1.000     C          -0.09324500000000001          
         C11       1.0000    0.23450   0.89720   0.55460   Biso      1.000     C          -0.14     
         C12       1.0000    0.40960   0.68420   0.34100   Biso      1.000     C          -0.125078           
         C13       1.0000    0.42250   0.12320   0.43550   Biso      1.000     C          -0.10721199999999999          
         C14       1.0000    0.03210   0.29510   0.28560   Biso      1.000     C          0.125386  
         C15       1.0000    0.29700   0.62090   0.08720   Biso      1.000     C          -0.133659           
         C16       1.0000    0.85820   0.16760   0.38590   Biso      1.000     C          0.055847  
         C17       1.0000    0.31690   0.87910   0.47450   Biso      1.000     C          -0.117372           
         C18       1.0000    0.93120   0.08750   0.08060   Biso      1.000     C          0.049388  
         C19       1.0000    0.36710   0.70090   0.03350   Biso      1.000     C          0.114883  
         C20       1.0000    0.14720   0.72300   0.03070   Biso      1.000     C          0.061329999999999996          
         C21       1.0000    0.06880   0.91250   0.91940   Biso      1.000     C          0.049384  
         C22       1.0000    0.01640   0.82010   0.41300   Biso      1.000     C          -0.11873399999999999          
         C23       1.0000    0.85280   0.27700   0.96930   Biso      1.000     C          0.061327  
         C24       1.0000    0.96790   0.70490   0.71440   Biso      1.000     C          0.125385  
         C25       1.0000    0.63290   0.29910   0.96650   Biso      1.000     C          0.114883  
         C26       1.0000    0.41080   0.76960   0.36140   Biso      1.000     C          -0.073733           
         C27       1.0000    0.22250   0.39500   0.99910   Biso      1.000     C          -0.09324400000000001          
         C28       1.0000    0.03030   0.00890   0.86600   Biso      1.000     C          -0.091724           
         C29       1.0000    0.10510   0.08140   0.81660   Biso      1.000     C          -0.122499           
         C30       1.0000    0.67370   0.72990   0.08300   Biso      1.000     C          -0.036991           
         C31       1.0000    0.76550   0.27600   0.49690   Biso      1.000     C          0.12118699999999999           
         C32       1.0000    0.71750   0.68240   0.16220   Biso      1.000     C          -0.137397           
         C33       1.0000    0.14780   0.95150   0.31830   Biso      1.000     C          -0.122324           
         C34       1.0000    0.39360   0.17190   0.34770   Biso      1.000     C          -0.017695           
         C35       1.0000    0.59770   0.82620   0.08200   Biso      1.000     C          0.6426149999999999  
         C36       1.0000    0.07080   0.77310   0.33850   Biso      1.000     C          -0.008056           
         C37       1.0000    0.03430   0.67220   0.35510   Biso      1.000     C          0.617943  
         C38       1.0000    0.84500   0.55220   0.24280   Biso      1.000     C          0.583079  
         C39       1.0000    0.20000   0.90670   0.24140   Biso      1.000     C          -0.018106           
         C40       1.0000    0.29920   0.95290   0.15120   Biso      1.000     C          0.6572319999999999  
         C41       1.0000    0.67820   0.20780   0.55480   Biso      1.000     C          0.058802  
         C42       1.0000    0.32000   0.25740   0.34350   Biso      1.000     C          -0.134825           
         C43       1.0000    0.05200   0.91160   0.40100   Biso      1.000     C          -0.097121           
         C44       1.0000    0.79400   0.59810   0.15960   Biso      1.000     C          -0.008173           
         C45       1.0000    0.19640   0.39270   0.42020   Biso      1.000     C          0.640085  
         C46       1.0000    0.44780   0.13100   0.25890   Biso      1.000     C          0.585986  
         C47       1.0000    0.70170   0.68970   0.00370   Biso      1.000     C          -0.110732           
         C48       1.0000    0.81840   0.10250   0.07700   Biso      1.000     C          0.126531  
         C49       1.0000    0.27520   0.29730   0.42490   Biso      1.000     C          -0.031103           
         C50       1.0000    0.82540   0.55950   0.07820   Biso      1.000     C          -0.10931099999999999          
         C51       1.0000    0.00300   0.17080   0.02740   Biso      1.000     C          -0.138291           
         C52       1.0000    0.99700   0.82920   0.97260   Biso      1.000     C          -0.138256           
         C53       1.0000    0.77770   0.19760   0.02150   Biso      1.000     C          0.125614  
         C54       1.0000    0.15940   0.81840   0.25040   Biso      1.000     C          -0.144992           
         C55       1.0000    0.31890   0.62190   0.40290   Biso      1.000     C          0.128628  
         C56       1.0000    0.85760   0.25340   0.41330   Biso      1.000     C          0.13112100000000002           
         C57       1.0000    0.94890   0.15140   0.30190   Biso      1.000     C          -0.09185399999999999          
         C58       1.0000    0.85220   0.04850   0.68170   Biso      1.000     C          -0.122324           
         C59       1.0000    0.80930   0.36990   0.91280   Biso      1.000     C          -0.063501           
         C60       1.0000    0.23450   0.72400   0.50310   Biso      1.000     C          0.12118699999999999           
         C61       1.0000    0.14240   0.74660   0.58670   Biso      1.000     C          0.13112100000000002           
         C62       1.0000    0.76550   0.10280   0.44540   Biso      1.000     C          -0.14     
         C63       1.0000    0.98360   0.17990   0.58700   Biso      1.000     C          -0.11873399999999999          
         C64       1.0000    0.32630   0.27010   0.91700   Biso      1.000     C          -0.036991           
         C65       1.0000    0.68310   0.12090   0.52550   Biso      1.000     C          -0.117372           
         C66       1.0000    0.28250   0.31760   0.83780   Biso      1.000     C          -0.137398           
         C67       1.0000    0.78590   0.93580   0.17760   Biso      1.000     C          0.11591900000000001           
         C68       1.0000    0.60640   0.82810   0.65230   Biso      1.000     C          -0.017698           
         C69       1.0000    0.40230   0.17380   0.91800   Biso      1.000     C          0.6426149999999999  
         C70       1.0000    0.03420   0.21560   0.25050   Biso      1.000     C          -0.129395           
         C71       1.0000    0.92920   0.22690   0.66150   Biso      1.000     C          -0.008056           
         C72       1.0000    0.96570   0.32780   0.64490   Biso      1.000     C          0.6179439999999999  
         C73       1.0000    0.96470   0.25960   0.97570   Biso      1.000     C          -0.117157           
         C74       1.0000    0.37700   0.16140   0.51810   Biso      1.000     C          -0.099503           
         C75       1.0000    0.80000   0.09330   0.75860   Biso      1.000     C          -0.018106           
         C76       1.0000    0.70080   0.04710   0.84880   Biso      1.000     C          0.6572319999999999  
         C77       1.0000    0.59040   0.31580   0.65900   Biso      1.000     C          -0.125079           
         C78       1.0000    0.15500   0.44780   0.75720   Biso      1.000     C          0.583078  
         C79       1.0000    0.84060   0.18160   0.74960   Biso      1.000     C          -0.144992           
         C80       1.0000    0.68000   0.74260   0.65650   Biso      1.000     C          -0.134825           
         C81       1.0000    0.69410   0.75200   0.48910   Biso      1.000     C          -0.09496  
         C82       1.0000    0.57750   0.87680   0.56450   Biso      1.000     C          -0.107206           
         C83       1.0000    0.32180   0.79220   0.44520   Biso      1.000     C          0.058801  
         C84       1.0000    0.22230   0.80240   0.97850   Biso      1.000     C          0.125615  
         C85       1.0000    0.70300   0.37910   0.91280   Biso      1.000     C          -0.133659           
         C86       1.0000    0.17460   0.44050   0.92180   Biso      1.000     C          -0.10931300000000001          
         C87       1.0000    0.72480   0.70270   0.57510   Biso      1.000     C          -0.031105           
         C88       1.0000    0.29830   0.31030   0.99630   Biso      1.000     C          -0.110733           
         C89       1.0000    0.55220   0.86900   0.74110   Biso      1.000     C          0.585986  
         C90       1.0000    0.18160   0.89750   0.92300   Biso      1.000     C          0.126531  
         C91       1.0000    0.80360   0.60730   0.57980   Biso      1.000     C          0.6400859999999999  
         C92       1.0000    0.96970   0.99110   0.13400   Biso      1.000     C          -0.091723           
         C93       1.0000    0.20600   0.40190   0.84040   Biso      1.000     C          -0.008172           
         C94       1.0000    0.94800   0.08840   0.59900   Biso      1.000     C          -0.097121           
         C95       1.0000    0.58920   0.23040   0.63860   Biso      1.000     C          -0.073733           
         C96       1.0000    0.89490   0.91860   0.18340   Biso      1.000     C          -0.122499           
         Gd1       1.0000    0.44884   0.94610   0.90664   Biso      1.000     Gd          1.9254369999999998  
         Gd2       1.0000    0.06449   0.51862   0.59596   Biso      1.000     Gd          1.916814  
         Gd3       1.0000    0.55116   0.05390   0.09336   Biso      1.000     Gd          1.9254380000000002  
         Gd4       1.0000    0.93551   0.48138   0.40404   Biso      1.000     Gd          1.9168150000000002  
         H1        1.0000    0.09320   0.20660   0.19260   Biso      1.000     H          0.12111400000000001           
         H2        1.0000    0.04460   0.97810   0.13510   Biso      1.000     H          0.122949  
         H3        1.0000    0.95120   0.09650   0.28090   Biso      1.000     H          0.11203199999999999           
         H4        1.0000    0.91720   0.85580   0.22210   Biso      1.000     H          0.119076  
         H5        1.0000    0.85550   0.42390   0.87600   Biso      1.000     H          0.129441  
         H6        1.0000    0.17670   0.00850   0.31460   Biso      1.000     H          0.117968  
         H7        1.0000    0.01310   0.31210   0.94240   Biso      1.000     H          0.117177  
         H8        1.0000    0.55830   0.30840   0.96510   Biso      1.000     H          0.094993  
         H9        1.0000    0.01200   0.94620   0.44810   Biso      1.000     H          0.107924  
         H10       1.0000    0.39480   0.12820   0.57730   Biso      1.000     H          0.11249100000000001           
         H11       1.0000    0.66940   0.71970   0.95250   Biso      1.000     H          0.12506   
         H12       1.0000    0.73730   0.88350   0.21150   Biso      1.000     H          0.099209  
         H13       1.0000    0.87820   0.50360   0.07540   Biso      1.000     H          0.11775899999999999           
         H14       1.0000    0.47240   0.06510   0.43900   Biso      1.000     H          0.11044100000000001           
         H15       1.0000    0.53210   0.33290   0.71310   Biso      1.000     H          0.123134  
         H16       1.0000    0.27750   0.27460   0.56520   Biso      1.000     H          0.1207    
         H17       1.0000    0.68200   0.43530   0.61340   Biso      1.000     H          0.093572  
         H18       1.0000    0.53070   0.18730   0.67930   Biso      1.000     H          0.127729  
         H19       1.0000    0.79670   0.57820   0.94760   Biso      1.000     H          0.109071  
         H20       1.0000    0.09350   0.33580   0.25290   Biso      1.000     H          0.09503400000000001           
         H21       1.0000    0.67450   0.44010   0.87630   Biso      1.000     H          0.12521600000000002           
         H22       1.0000    0.62630   0.07570   0.56420   Biso      1.000     H          0.12251300000000001           
         H23       1.0000    0.29960   0.28940   0.28540   Biso      1.000     H          0.12016600000000001           
         H24       1.0000    0.76370   0.04720   0.42710   Biso      1.000     H          0.12253299999999999           
         H25       1.0000    0.92280   0.83750   0.97080   Biso      1.000     H          0.123977  
         H26       1.0000    0.95620   0.79080   0.47070   Biso      1.000     H          0.11463699999999999           
         H27       1.0000    0.26270   0.11650   0.78850   Biso      1.000     H          0.099209  
         H28       1.0000    0.23630   0.95280   0.57290   Biso      1.000     H          0.12253299999999999           
         H29       1.0000    0.46790   0.66710   0.28690   Biso      1.000     H          0.123134  
         H30       1.0000    0.46930   0.81270   0.32070   Biso      1.000     H          0.127729  
         H31       1.0000    0.32550   0.55990   0.12370   Biso      1.000     H          0.12521600000000002           
         H32       1.0000    0.37370   0.92430   0.43580   Biso      1.000     H          0.12251300000000001           
         H33       1.0000    0.90650   0.66420   0.74710   Biso      1.000     H          0.09503400000000001           
         H34       1.0000    0.20330   0.42180   0.05240   Biso      1.000     H          0.109071  
         H35       1.0000    0.31800   0.56470   0.38660   Biso      1.000     H          0.093572  
         H36       1.0000    0.72250   0.72540   0.43480   Biso      1.000     H          0.1207    
         H37       1.0000    0.52760   0.93490   0.56100   Biso      1.000     H          0.11044200000000001           
         H38       1.0000    0.12180   0.49640   0.92460   Biso      1.000     H          0.11775999999999999           
         H39       1.0000    0.33060   0.28030   0.04750   Biso      1.000     H          0.12506099999999998           
         H40       1.0000    0.98800   0.05380   0.55190   Biso      1.000     H          0.107924  
         H41       1.0000    0.70040   0.71060   0.71460   Biso      1.000     H          0.12016600000000001           
         H42       1.0000    0.82330   0.99150   0.68540   Biso      1.000     H          0.117968  
         H43       1.0000    0.04380   0.20920   0.52930   Biso      1.000     H          0.11463699999999999           
         H44       1.0000    0.30480   0.29240   0.78300   Biso      1.000     H          0.126898  
         H45       1.0000    0.80880   0.21040   0.80220   Biso      1.000     H          0.11906199999999999           
         H46       1.0000    0.60520   0.87180   0.42270   Biso      1.000     H          0.11249300000000001           
         H47       1.0000    0.14450   0.57610   0.12400   Biso      1.000     H          0.129441  
         H48       1.0000    0.44170   0.69160   0.03490   Biso      1.000     H          0.094992  
         H49       1.0000    0.90680   0.79340   0.80740   Biso      1.000     H          0.12111300000000001           
         H50       1.0000    0.69520   0.70760   0.21700   Biso      1.000     H          0.126898  
         H51       1.0000    0.98690   0.68790   0.05760   Biso      1.000     H          0.11717899999999999           
         H52       1.0000    0.19120   0.78960   0.19780   Biso      1.000     H          0.11906199999999999           
         H53       1.0000    0.07720   0.16250   0.02920   Biso      1.000     H          0.12397899999999999           
         H54       1.0000    0.04880   0.90350   0.71910   Biso      1.000     H          0.11203099999999999           
         H55       1.0000    0.95540   0.02190   0.86490   Biso      1.000     H          0.122949  
         H56       1.0000    0.08280   0.14420   0.77790   Biso      1.000     H          0.119077  
         N1        1.0000    0.25260   0.97500   0.87480   Biso      1.000     N          -0.34407600000000005          
         N2        1.0000    0.23540   0.63880   0.48200   Biso      1.000     N          -0.339001           
         N3        1.0000    0.05450   0.68500   0.63580   Biso      1.000     N          -0.361119           
         N4        1.0000    0.74740   0.02500   0.12520   Biso      1.000     N          -0.34407600000000005          
         N5        1.0000    0.94550   0.31500   0.36420   Biso      1.000     N          -0.36112  
         N6        1.0000    0.76460   0.36120   0.51800   Biso      1.000     N          -0.339001           
         N7        1.0000    0.33130   0.79120   0.97970   Biso      1.000     N          -0.35391  
         N8        1.0000    0.66870   0.20880   0.02030   Biso      1.000     N          -0.35391  
         O1        1.0000    0.00630   0.65450   0.29100   Biso      1.000     O          -0.583136           
         O2        1.0000    0.05540   0.49130   0.77700   Biso      1.000     O          -0.633829           
         O3        1.0000    0.69560   0.04690   0.93540   Biso      1.000     O          -0.681175           
         O4        1.0000    0.63050   0.01160   0.83200   Biso      1.000     O          -0.642766           
         O5        1.0000    0.96980   0.39550   0.55940   Biso      1.000     O          -0.732681           
         O6        1.0000    0.57040   0.82020   0.82380   Biso      1.000     O          -0.636961           
         O7        1.0000    0.80860   0.56250   0.51920   Biso      1.000     O          -0.6424770000000001           
         O8        1.0000    0.86350   0.58170   0.63760   Biso      1.000     O          -0.655297           
         O9        1.0000    0.49170   0.95110   0.73180   Biso      1.000     O          -0.639178           
         O10       1.0000    0.46310   0.14440   0.97470   Biso      1.000     O          -0.690706           
         O11       1.0000    0.36950   0.98840   0.16800   Biso      1.000     O          -0.642766           
         O12       1.0000    0.99370   0.34550   0.70900   Biso      1.000     O          -0.583136           
         O13       1.0000    0.21250   0.44010   0.67030   Biso      1.000     O          -0.6256189999999999           
         O14       1.0000    0.03020   0.60450   0.44060   Biso      1.000     O          -0.732681           
         O15       1.0000    0.39960   0.12400   0.86450   Biso      1.000     O          -0.639026           
         O16       1.0000    0.94460   0.50870   0.22300   Biso      1.000     O          -0.633829           
         O17       1.0000    0.42960   0.17980   0.17620   Biso      1.000     O          -0.636961           
         O18       1.0000    0.60040   0.87600   0.13550   Biso      1.000     O          -0.639026           
         O19       1.0000    0.19140   0.43750   0.48080   Biso      1.000     O          -0.642476           
         O20       1.0000    0.13650   0.41830   0.36240   Biso      1.000     O          -0.655297           
         O21       1.0000    0.50830   0.04890   0.26820   Biso      1.000     O          -0.639177           
         O22       1.0000    0.78750   0.55990   0.32970   Biso      1.000     O          -0.6256189999999999           
         O23       1.0000    0.53690   0.85560   0.02530   Biso      1.000     O          -0.690706           
         O24       1.0000    0.30440   0.95310   0.06460   Biso      1.000     O          -0.681175 