
##########################################################################
#               Crystallographic Information Format file
#               Produced by PyCifRW module
#
#  This is a CIF file.  CIF has been adopted by the International
#  Union of Crystallography as the standard for data archiving and
#  transmission.
#
#  For information on this file format, follow the CIF links at
#  http://www.iucr.org
##########################################################################

data_image0

_cell_length_a                          10.929
_cell_length_b                          16.594
_cell_length_c                          18.277
_cell_angle_alpha                       63.002
_cell_angle_beta                        72.6034
_cell_angle_gamma                       90
_symmetry_space_group_name_H-M          'P 1'
_symmetry_int_tables_number             1
loop_
  _symmetry_equiv_pos_as_xyz
         'x, y, z' 
loop_
  _atom_site_label
  _atom_site_occupancy
  _atom_site_fract_x
  _atom_site_fract_y
  _atom_site_fract_z
  _atom_site_thermal_displace_type
  _atom_site_B_iso_or_equiv
  _atom_site_type_symbol
  _atom_site_charge
         C1        1.0000    0.24093   0.40293   0.52494   Biso      1.000     C          0.165606  
         C2        1.0000    0.39910   0.31410   0.54940   Biso      1.000     C          0.103583  
         C3        1.0000    0.02320   0.53270   0.53820   Biso      1.000     C          -0.161605           
         C4        1.0000    0.10672   0.56832   0.57496   Biso      1.000     C          0.110879  
         C5        1.0000    0.08010   0.52930   0.66300   Biso      1.000     C          -0.153135           
         C6        1.0000    0.15497   0.56027   0.69746   Biso      1.000     C          -0.087874           
         C7        1.0000    0.25755   0.63035   0.64250   Biso      1.000     C          -0.050617           
         C8        1.0000    0.28131   0.67091   0.55338   Biso      1.000     C          -0.105748           
         C9        1.0000    0.20962   0.63982   0.51936   Biso      1.000     C          -0.15812  
         C10       1.0000    0.33905   0.66285   0.68010   Biso      1.000     C          0.605699  
         C11       1.0000    0.51261   0.97791   0.76578   Biso      1.000     C          -0.136073           
         C12       1.0000    0.43324   0.89454   0.82352   Biso      1.000     C          -0.036048           
         C13       1.0000    0.36794   0.87554   0.90912   Biso      1.000     C          -0.100112           
         C14       1.0000    0.37940   0.94220   0.93520   Biso      1.000     C          0.003683  
         C15       1.0000    0.46110   0.02310   0.87680   Biso      1.000     C          -0.110302           
         C16       1.0000    0.52783   0.04193   0.79274   Biso      1.000     C          -0.025425           
         C17       1.0000    0.30410   0.92390   0.02660   Biso      1.000     C          0.554569  
         C18       1.0000    0.61912   0.13142   0.73096   Biso      1.000     C          0.589237  
         C19       1.0000    0.33890   0.27130   0.63720   Biso      1.000     C          -0.126936           
         C20       1.0000    0.42306   0.82316   0.79648   Biso      1.000     C          0.61247   
         C21       1.0000    0.22470   0.29560   0.66960   Biso      1.000     C          -0.012029           
         C22       1.0000    0.20279   0.47529   0.45482   Biso      1.000     C          0.170719  
         C23       1.0000    0.89328   0.14328   0.42504   Biso      1.000     C          0.110506  
         C24       1.0000    0.91990   0.19230   0.33700   Biso      1.000     C          -0.153781           
         C25       1.0000    0.84503   0.25773   0.30254   Biso      1.000     C          -0.088053           
         C26       1.0000    0.74245   0.27285   0.35750   Biso      1.000     C          -0.053248           
         C27       1.0000    0.71869   0.22429   0.44662   Biso      1.000     C          -0.103261           
         C28       1.0000    0.79038   0.15918   0.48064   Biso      1.000     C          -0.158752           
         C29       1.0000    0.66095   0.34295   0.31990   Biso      1.000     C          0.607527  
         C30       1.0000    0.27839   0.24369   0.23422   Biso      1.000     C          -0.135895           
         C31       1.0000    0.25676   0.21806   0.17648   Biso      1.000     C          -0.036958           
         C32       1.0000    0.31460   0.37740   0.06480   Biso      1.000     C          0.005558  
         C33       1.0000    0.33790   0.39990   0.12320   Biso      1.000     C          -0.114441           
         C34       1.0000    0.32057   0.33467   0.20726   Biso      1.000     C          -0.023521           
         C35       1.0000    0.33070   0.45050   0.97340   Biso      1.000     C          0.553824  
         C36       1.0000    0.35008   0.36238   0.26904   Biso      1.000     C          0.588157  
         C37       1.0000    0.21954   0.11964   0.20352   Biso      1.000     C          0.612257  
         C38       1.0000    0.11350   0.58580   0.37620   Biso      1.000     C          -0.093841           
         C39       1.0000    0.20820   0.56570   0.32420   Biso      1.000     C          0.001983  
         C40       1.0000    0.17170   0.36220   0.61200   Biso      1.000     C          -0.170061           
         C41       1.0000    0.97680   0.07090   0.46180   Biso      1.000     C          -0.161927           
         C42       1.0000    0.48970   0.46200   0.62380   Biso      1.000     C          -0.090868           
         C43       1.0000    0.65761   0.43011   0.54518   Biso      1.000     C          0.171175  
         C44       1.0000    0.57694   0.61964   0.20352   Biso      1.000     C          0.612191  
         C45       1.0000    0.51030   0.08580   0.37620   Biso      1.000     C          -0.091719           
         C46       1.0000    0.46760   0.06570   0.32420   Biso      1.000     C          -0.003123           
         C47       1.0000    0.34239   0.97529   0.45482   Biso      1.000     C          0.17042   
         C48       1.0000    0.23413   0.90293   0.52494   Biso      1.000     C          0.164542  
         C49       1.0000    0.21630   0.86220   0.61200   Biso      1.000     C          -0.170547           
         C50       1.0000    0.10570   0.79560   0.66960   Biso      1.000     C          -0.010797           
         C51       1.0000    0.02390   0.77130   0.63720   Biso      1.000     C          -0.125619           
         C52       1.0000    0.05150   0.81410   0.54940   Biso      1.000     C          0.100803  
         C53       1.0000    0.43860   0.03270   0.53820   Biso      1.000     C          -0.160335           
         C54       1.0000    0.31832   0.06832   0.57496   Biso      1.000     C          0.108418  
         C55       1.0000    0.25690   0.02930   0.66300   Biso      1.000     C          -0.153905           
         C56       1.0000    0.14757   0.06027   0.69746   Biso      1.000     C          -0.086294           
         C57       1.0000    0.09995   0.13035   0.64250   Biso      1.000     C          -0.052013           
         C58       1.0000    0.16531   0.17091   0.55338   Biso      1.000     C          -0.104596           
         C59       1.0000    0.27102   0.13982   0.51936   Biso      1.000     C          -0.157608           
         C60       1.0000    0.98085   0.16285   0.68010   Biso      1.000     C          0.604729  
         C61       1.0000    0.38088   0.86238   0.26904   Biso      1.000     C          0.588263  
         C62       1.0000    0.53240   0.38990   0.67580   Biso      1.000     C          -0.000419           
         C63       1.0000    0.69590   0.95050   0.97340   Biso      1.000     C          0.554125  
         C64       1.0000    0.53890   0.89990   0.12320   Biso      1.000     C          -0.112384           
         C65       1.0000    0.76587   0.42787   0.47506   Biso      1.000     C          0.164043  
         C66       1.0000    0.78370   0.47420   0.38800   Biso      1.000     C          -0.168459           
         C67       1.0000    0.89430   0.46520   0.33040   Biso      1.000     C          -0.012863           
         C68       1.0000    0.97610   0.40850   0.36280   Biso      1.000     C          -0.125201           
         C69       1.0000    0.94850   0.36350   0.45060   Biso      1.000     C          0.102407  
         C70       1.0000    0.56140   0.57090   0.46180   Biso      1.000     C          -0.160506           
         C71       1.0000    0.68168   0.64328   0.42504   Biso      1.000     C          0.108807  
         C72       1.0000    0.74310   0.69230   0.33700   Biso      1.000     C          -0.153015           
         C73       1.0000    0.85243   0.75773   0.30254   Biso      1.000     C          -0.086497           
         C74       1.0000    0.90005   0.77285   0.35750   Biso      1.000     C          -0.051498           
         C75       1.0000    0.83469   0.72429   0.44662   Biso      1.000     C          -0.105267           
         C76       1.0000    0.72898   0.65918   0.48064   Biso      1.000     C          -0.155941           
         C77       1.0000    0.01915   0.84295   0.31990   Biso      1.000     C          0.605791  
         C78       1.0000    0.48739   0.74369   0.23422   Biso      1.000     C          -0.135706           
         C79       1.0000    0.56676   0.71806   0.17648   Biso      1.000     C          -0.035424           
         C80       1.0000    0.63206   0.78466   0.09088   Biso      1.000     C          -0.101847           
         C81       1.0000    0.62060   0.87740   0.06480   Biso      1.000     C          0.004738  
         C82       1.0000    0.47217   0.83467   0.20726   Biso      1.000     C          -0.024802           
         C83       1.0000    0.60090   0.86350   0.45060   Biso      1.000     C          0.103934  
         C84       1.0000    0.27706   0.28466   0.09088   Biso      1.000     C          -0.099683           
         C85       1.0000    0.77530   0.96520   0.33040   Biso      1.000     C          -0.011162           
         C86       1.0000    0.66110   0.90850   0.36280   Biso      1.000     C          -0.126747           
         C87       1.0000    0.72161   0.47791   0.76578   Biso      1.000     C          -0.13629  
         C88       1.0000    0.72294   0.37554   0.90912   Biso      1.000     C          -0.097965           
         C89       1.0000    0.68540   0.44220   0.93520   Biso      1.000     C          0.004333  
         C90       1.0000    0.66210   0.52310   0.87680   Biso      1.000     C          -0.11285  
         C91       1.0000    0.67943   0.54193   0.79274   Biso      1.000     C          -0.023409           
         C92       1.0000    0.66930   0.42390   0.02660   Biso      1.000     C          0.553377  
         C93       1.0000    0.74324   0.39454   0.82352   Biso      1.000     C          -0.036959           
         C94       1.0000    0.78046   0.32316   0.79648   Biso      1.000     C          0.611879  
         C95       1.0000    0.88650   0.96200   0.62380   Biso      1.000     C          -0.09481  
         C96       1.0000    0.79180   0.88990   0.67580   Biso      1.000     C          0.002184  
         C97       1.0000    0.79721   0.93011   0.54518   Biso      1.000     C          0.170711  
         C98       1.0000    0.75907   0.92787   0.47506   Biso      1.000     C          0.16447   
         C99       1.0000    0.64992   0.63142   0.73096   Biso      1.000     C          0.588249  
         C100      1.0000    0.82830   0.97420   0.38800   Biso      1.000     C          -0.169891           
         H1        1.0000    0.36600   0.46080   0.10560   Biso      1.000     H          0.130537  
         H2        1.0000    0.06250   0.63110   0.35900   Biso      1.000     H          0.136735  
         H3        1.0000    0.23270   0.59440   0.26380   Biso      1.000     H          0.134334  
         H4        1.0000    0.09190   0.37810   0.63260   Biso      1.000     H          0.13025   
         H5        1.0000    0.18210   0.26830   0.72940   Biso      1.000     H          0.122822  
         H6        1.0000    0.97470   0.47260   0.58280   Biso      1.000     H          0.125246  
         H7        1.0000    0.96150   0.57370   0.52220   Biso      1.000     H          0.137388  
         H8        1.0000    0.01110   0.48150   0.70020   Biso      1.000     H          0.117083  
         H9        1.0000    0.13560   0.53370   0.75740   Biso      1.000     H          0.130716  
         H10       1.0000    0.26580   0.26780   0.05100   Biso      1.000     H          0.129148  
         H11       1.0000    0.34780   0.72050   0.51600   Biso      1.000     H          0.11404   
         H12       1.0000    0.37490   0.22660   0.67400   Biso      1.000     H          0.132156  
         H13       1.0000    0.26450   0.19960   0.29160   Biso      1.000     H          0.111125  
         H14       1.0000    0.62510   0.90060   0.32600   Biso      1.000     H          0.132365  
         H15       1.0000    0.65220   0.23650   0.48400   Biso      1.000     H          0.113809  
         H16       1.0000    0.86440   0.29110   0.24260   Biso      1.000     H          0.130706  
         H17       1.0000    0.98890   0.18170   0.29980   Biso      1.000     H          0.1177    
         H18       1.0000    0.02530   0.05540   0.41720   Biso      1.000     H          0.125695  
         H19       1.0000    0.03850   0.09590   0.47780   Biso      1.000     H          0.137624  
         H20       1.0000    0.52330   0.82430   0.47220   Biso      1.000     H          0.090404  
         H21       1.0000    0.22940   0.66630   0.45920   Biso      1.000     H          0.122822  
         H22       1.0000    0.81790   0.99770   0.27060   Biso      1.000     H          0.12247   
         H23       1.0000    0.90810   0.01070   0.36740   Biso      1.000     H          0.130258  
         H24       1.0000    0.76730   0.85820   0.73620   Biso      1.000     H          0.134664  
         H25       1.0000    0.93750   0.99010   0.64100   Biso      1.000     H          0.136702  
         H26       1.0000    0.63400   0.56640   0.89440   Biso      1.000     H          0.129691  
         H27       1.0000    0.73420   0.31880   0.94900   Biso      1.000     H          0.128431  
         H28       1.0000    0.73550   0.49120   0.70840   Biso      1.000     H          0.110884  
         H29       1.0000    0.77060   0.12550   0.54080   Biso      1.000     H          0.122935  
         H30       1.0000    0.55610   0.99120   0.70840   Biso      1.000     H          0.11095   
         H31       1.0000    0.47670   0.29650   0.52780   Biso      1.000     H          0.09117   
         H32       1.0000    0.47160   0.06640   0.89440   Biso      1.000     H          0.129023  
         H33       1.0000    0.31680   0.81880   0.94900   Biso      1.000     H          0.129238  
         H34       1.0000    0.31140   0.16630   0.45920   Biso      1.000     H          0.123237  
         H35       1.0000    0.13620   0.22050   0.51600   Biso      1.000     H          0.113821  
         H36       1.0000    0.10700   0.03370   0.75740   Biso      1.000     H          0.130219  
         H37       1.0000    0.28870   0.98150   0.70020   Biso      1.000     H          0.117078  
         H38       1.0000    0.51630   0.07370   0.52220   Biso      1.000     H          0.136779  
         H39       1.0000    0.99550   0.79650   0.52780   Biso      1.000     H          0.092025  
         H40       1.0000    0.95110   0.72660   0.67400   Biso      1.000     H          0.131269  
         H41       1.0000    0.08850   0.76830   0.72940   Biso      1.000     H          0.122617  
         H42       1.0000    0.27550   0.87810   0.63260   Biso      1.000     H          0.130637  
         H43       1.0000    0.50350   0.09440   0.26380   Biso      1.000     H          0.136415  
         H44       1.0000    0.57850   0.13110   0.35900   Biso      1.000     H          0.136346  
         H45       1.0000    0.52840   0.96080   0.10560   Biso      1.000     H          0.13033   
         H46       1.0000    0.44250   0.97260   0.58280   Biso      1.000     H          0.125748  
         H47       1.0000    0.44390   0.69960   0.29160   Biso      1.000     H          0.110611  
         H48       1.0000    0.68320   0.76780   0.05100   Biso      1.000     H          0.130005  
         H49       1.0000    0.42150   0.49010   0.64100   Biso      1.000     H          0.135708  
         H50       1.0000    0.49650   0.35820   0.73620   Biso      1.000     H          0.135342  
         H51       1.0000    0.72450   0.51070   0.36740   Biso      1.000     H          0.129667  
         H52       1.0000    0.04890   0.40060   0.32600   Biso      1.000     H          0.131527  
         H53       1.0000    0.00450   0.32430   0.47220   Biso      1.000     H          0.091323  
         H54       1.0000    0.91150   0.49770   0.27060   Biso      1.000     H          0.123264  
         H55       1.0000    0.55750   0.55540   0.41720   Biso      1.000     H          0.1254    
         H56       1.0000    0.71130   0.68170   0.29980   Biso      1.000     H          0.116818  
         H57       1.0000    0.89300   0.79110   0.24260   Biso      1.000     H          0.129871  
         H58       1.0000    0.86380   0.73650   0.48400   Biso      1.000     H          0.113839  
         H59       1.0000    0.68860   0.62550   0.54080   Biso      1.000     H          0.121599  
         H60       1.0000    0.48370   0.59590   0.47780   Biso      1.000     H          0.137418  
         N1        1.0000    0.43332   0.02652   0.46016   Biso      1.000     N          0.026675  
         N2        1.0000    0.84577   0.37167   0.50846   Biso      1.000     N          -0.26882  
         N3        1.0000    0.64577   0.87167   0.50846   Biso      1.000     N          -0.268864           
         N4        1.0000    0.63592   0.36942   0.62756   Biso      1.000     N          -0.31164  
         N5        1.0000    0.56668   0.48668   0.53984   Biso      1.000     N          0.025726  
         N6        1.0000    0.35423   0.38013   0.49154   Biso      1.000     N          -0.269394           
         N7        1.0000    0.26348   0.49698   0.37244   Biso      1.000     N          -0.311277           
         N8        1.0000    0.10652   0.52652   0.46016   Biso      1.000     N          0.026473  
         N9        1.0000    0.73652   0.86942   0.62756   Biso      1.000     N          -0.311095           
         N10       1.0000    0.15423   0.88013   0.49154   Biso      1.000     N          -0.267244           
         N11       1.0000    0.36408   0.99698   0.37244   Biso      1.000     N          -0.309756           
         N12       1.0000    0.89348   0.98668   0.53984   Biso      1.000     N          0.026612  
         O1        1.0000    0.45747   0.84627   0.71666   Biso      1.000     O          -0.58382  
         O2        1.0000    0.66790   0.17060   0.76420   Biso      1.000     O          -0.579638           
         O3        1.0000    0.64296   0.16556   0.65188   Biso      1.000     O          -0.541836           
         O4        1.0000    0.25870   0.84190   0.08700   Biso      1.000     O          -0.579075           
         O5        1.0000    0.31933   0.98893   0.04334   Biso      1.000     O          -0.558801           
         O6        1.0000    0.43245   0.72535   0.62990   Biso      1.000     O          -0.540969           
         O7        1.0000    0.23874   0.09854   0.14272   Biso      1.000     O          -0.543765           
         O8        1.0000    0.30541   0.62181   0.76258   Biso      1.000     O          -0.572565           
         O9        1.0000    0.17413   0.06293   0.28334   Biso      1.000     O          -0.58386  
         O10       1.0000    0.61854   0.59854   0.14272   Biso      1.000     O          -0.543658           
         O11       1.0000    0.54253   0.56293   0.28334   Biso      1.000     O          -0.58401  
         O12       1.0000    0.33210   0.93480   0.23580   Biso      1.000     O          -0.579148           
         O13       1.0000    0.35704   0.81744   0.34812   Biso      1.000     O          -0.541472           
         O14       1.0000    0.74130   0.92890   0.91300   Biso      1.000     O          -0.579091           
         O15       1.0000    0.68067   0.03227   0.95666   Biso      1.000     O          -0.558438           
         O16       1.0000    0.06799   0.88439   0.23742   Biso      1.000     O          -0.572926           
         O17       1.0000    0.06235   0.85525   0.37010   Biso      1.000     O          -0.540653           
         O18       1.0000    0.38146   0.74126   0.85728   Biso      1.000     O          -0.543915           
         O19       1.0000    0.43210   0.43480   0.23580   Biso      1.000     O          -0.579707           
         O20       1.0000    0.93201   0.12181   0.76258   Biso      1.000     O          -0.571665           
         O21       1.0000    0.34570   0.42890   0.91300   Biso      1.000     O          -0.57928  
         O22       1.0000    0.93765   0.22535   0.62990   Biso      1.000     O          -0.540462           
         O23       1.0000    0.29484   0.31744   0.34812   Biso      1.000     O          -0.541704           
         O24       1.0000    0.65430   0.34190   0.08700   Biso      1.000     O          -0.578956           
         O25       1.0000    0.70516   0.66556   0.65188   Biso      1.000     O          -0.542478           
         O26       1.0000    0.56790   0.67060   0.76420   Biso      1.000     O          -0.579079           
         O27       1.0000    0.63733   0.48893   0.04334   Biso      1.000     O          -0.557904           
         O28       1.0000    0.76126   0.24126   0.85728   Biso      1.000     O          -0.54377  
         O29       1.0000    0.56755   0.35525   0.37010   Biso      1.000     O          -0.542261           
         O30       1.0000    0.69459   0.38439   0.23742   Biso      1.000     O          -0.572418           
         O31       1.0000    0.36267   0.53227   0.95666   Biso      1.000     O          -0.558386           
         O32       1.0000    0.82587   0.34627   0.71666   Biso      1.000     O          -0.583531           
         Zn1       1.0000    0.78911   0.13058   0.84658   Biso      1.000     Zn          0.982927  
         Zn2       1.0000    0.22335   0.93468   0.35076   Biso      1.000     Zn          0.817077  
         Zn3       1.0000    0.21089   0.97716   0.15342   Biso      1.000     Zn          0.983277  
         Zn4       1.0000    0.77665   0.28544   0.64924   Biso      1.000     Zn          0.817824  
         Zn5       1.0000    0.36431   0.63058   0.84658   Biso      1.000     Zn          0.9835    
         Zn6       1.0000    0.42589   0.43468   0.35076   Biso      1.000     Zn          0.817559  
         Zn7       1.0000    0.63569   0.47716   0.15342   Biso      1.000     Zn          0.983165  
         Zn8       1.0000    0.57411   0.78544   0.64924   Biso      1.000     Zn          0.817414 