
##########################################################################
#               Crystallographic Information Format file
#               Produced by PyCifRW module
#
#  This is a CIF file.  CIF has been adopted by the International
#  Union of Crystallography as the standard for data archiving and
#  transmission.
#
#  For information on this file format, follow the CIF links at
#  http://www.iucr.org
##########################################################################

data_image0

_cell_length_a                          22.4941
_cell_length_b                          11.1377
_cell_length_c                          9.8101
_cell_angle_alpha                       90
_cell_angle_beta                        103.1
_cell_angle_gamma                       90
_symmetry_space_group_name_H-M          'P 1'
_symmetry_int_tables_number             1
loop_
  _symmetry_equiv_pos_as_xyz
         'x, y, z' 
loop_
  _atom_site_label
  _atom_site_occupancy
  _atom_site_fract_x
  _atom_site_fract_y
  _atom_site_fract_z
  _atom_site_thermal_displace_type
  _atom_site_B_iso_or_equiv
  _atom_site_type_symbol
  _atom_site_charge
         C1        1.0000    0.08286   0.23116   0.67663   Biso      1.000     C          -0.429971           
         C2        1.0000    0.69046   0.20413   0.23901   Biso      1.000     C          -0.1198   
         C3        1.0000    0.91714   0.76884   0.32337   Biso      1.000     C          -0.429971           
         C4        1.0000    0.79086   0.59902   0.86467   Biso      1.000     C          0.592543  
         C5        1.0000    0.65452   0.64245   0.87577   Biso      1.000     C          -0.113687           
         C6        1.0000    0.80954   0.70413   0.26099   Biso      1.000     C          -0.1198   
         C7        1.0000    0.67906   0.54253   0.79750   Biso      1.000     C          -0.234776           
         C8        1.0000    0.73406   0.58637   0.74467   Biso      1.000     C          -0.109894           
         C9        1.0000    0.78189   0.79832   0.34078   Biso      1.000     C          -0.221577           
         C10       1.0000    0.71811   0.70168   0.65922   Biso      1.000     C          -0.221577           
         C11       1.0000    0.69046   0.79587   0.73901   Biso      1.000     C          -0.1198   
         C12       1.0000    0.76594   0.91363   0.25533   Biso      1.000     C          -0.109894           
         C13       1.0000    0.58286   0.73116   0.67663   Biso      1.000     C          -0.429971           
         C14       1.0000    0.82094   0.95747   0.20250   Biso      1.000     C          -0.234776           
         C15       1.0000    0.84548   0.85755   0.12423   Biso      1.000     C          -0.113687           
         C16       1.0000    0.29086   0.90098   0.36467   Biso      1.000     C          0.592543  
         C17       1.0000    0.15452   0.85755   0.37577   Biso      1.000     C          -0.113687           
         C18       1.0000    0.70914   0.90098   0.13533   Biso      1.000     C          0.592544  
         C19       1.0000    0.17906   0.95747   0.29750   Biso      1.000     C          -0.234776           
         C20       1.0000    0.23406   0.91363   0.24467   Biso      1.000     C          -0.109894           
         C21       1.0000    0.21811   0.79832   0.15922   Biso      1.000     C          -0.221577           
         C22       1.0000    0.19046   0.70413   0.23901   Biso      1.000     C          -0.1198   
         C23       1.0000    0.08286   0.76884   0.17663   Biso      1.000     C          -0.429971           
         C24       1.0000    0.79086   0.40098   0.36467   Biso      1.000     C          0.592543  
         C25       1.0000    0.65452   0.35755   0.37577   Biso      1.000     C          -0.113687           
         C26       1.0000    0.58286   0.26884   0.17663   Biso      1.000     C          -0.429971           
         C27       1.0000    0.67906   0.45747   0.29750   Biso      1.000     C          -0.234776           
         C28       1.0000    0.73406   0.41363   0.24467   Biso      1.000     C          -0.109894           
         C29       1.0000    0.19046   0.29587   0.73901   Biso      1.000     C          -0.1198   
         C30       1.0000    0.21811   0.20168   0.65922   Biso      1.000     C          -0.221577           
         C31       1.0000    0.71811   0.29832   0.15922   Biso      1.000     C          -0.221577           
         C32       1.0000    0.17906   0.04253   0.79750   Biso      1.000     C          -0.234777           
         C33       1.0000    0.78189   0.20168   0.84078   Biso      1.000     C          -0.221577           
         C34       1.0000    0.41714   0.26884   0.32337   Biso      1.000     C          -0.429971           
         C35       1.0000    0.80954   0.29587   0.76099   Biso      1.000     C          -0.1198   
         C36       1.0000    0.91714   0.23116   0.82337   Biso      1.000     C          -0.429971           
         C37       1.0000    0.30954   0.20413   0.26099   Biso      1.000     C          -0.1198   
         C38       1.0000    0.84548   0.14245   0.62423   Biso      1.000     C          -0.113688           
         C39       1.0000    0.20914   0.59902   0.63533   Biso      1.000     C          0.592543  
         C40       1.0000    0.28189   0.29832   0.34078   Biso      1.000     C          -0.221577           
         C41       1.0000    0.23406   0.08637   0.74467   Biso      1.000     C          -0.109894           
         C42       1.0000    0.70914   0.09902   0.63533   Biso      1.000     C          0.592543  
         C43       1.0000    0.34548   0.64245   0.62423   Biso      1.000     C          -0.113687           
         C44       1.0000    0.76594   0.08637   0.75533   Biso      1.000     C          -0.109894           
         C45       1.0000    0.32094   0.54253   0.70250   Biso      1.000     C          -0.234776           
         C46       1.0000    0.26594   0.58637   0.75533   Biso      1.000     C          -0.109894           
         C47       1.0000    0.32094   0.45747   0.20250   Biso      1.000     C          -0.234777           
         C48       1.0000    0.28189   0.70168   0.84078   Biso      1.000     C          -0.221577           
         C49       1.0000    0.30954   0.79587   0.76099   Biso      1.000     C          -0.1198   
         C50       1.0000    0.34548   0.35755   0.12423   Biso      1.000     C          -0.113687           
         C51       1.0000    0.41714   0.73116   0.82337   Biso      1.000     C          -0.429971           
         C52       1.0000    0.20914   0.40098   0.13533   Biso      1.000     C          0.592543  
         C53       1.0000    0.29086   0.09902   0.86467   Biso      1.000     C          0.592544  
         C54       1.0000    0.15452   0.14245   0.87577   Biso      1.000     C          -0.113687           
         C55       1.0000    0.26594   0.41363   0.25533   Biso      1.000     C          -0.109894           
         C56       1.0000    0.82094   0.04253   0.70250   Biso      1.000     C          -0.234776           
         Cd1       1.0000    0.50000   0.88001   0.25000   Biso      1.000     Cd          1.189468  
         Cd2       1.0000    0.00000   0.38001   0.25000   Biso      1.000     Cd          1.189468  
         Cd3       1.0000    0.60786   0.91408   0.92833   Biso      1.000     Cd          1.0112    
         Cd4       1.0000    0.89214   0.41408   0.57167   Biso      1.000     Cd          1.0112    
         Cd5       1.0000    0.50000   0.11999   0.75000   Biso      1.000     Cd          1.189468  
         Cd6       1.0000    0.39214   0.91408   0.57167   Biso      1.000     Cd          1.0112    
         Cd7       1.0000    0.10786   0.41408   0.92833   Biso      1.000     Cd          1.0112    
         Cd8       1.0000    0.10786   0.58592   0.42833   Biso      1.000     Cd          1.0112    
         Cd9       1.0000    0.39214   0.08592   0.07167   Biso      1.000     Cd          1.0112    
         Cd10      1.0000    0.00000   0.61999   0.75000   Biso      1.000     Cd          1.189468  
         Cd11      1.0000    0.60786   0.08592   0.42833   Biso      1.000     Cd          1.0112    
         Cd12      1.0000    0.89214   0.58592   0.07167   Biso      1.000     Cd          1.0112    
         H1        1.0000    0.67800   0.13640   0.17870   Biso      1.000     H          0.105408  
         H2        1.0000    0.22140   0.32300   0.81720   Biso      1.000     H          0.101589  
         H3        1.0000    0.17800   0.36360   0.67870   Biso      1.000     H          0.105408  
         H4        1.0000    0.09490   0.18280   0.60650   Biso      1.000     H          0.147074  
         H5        1.0000    0.05360   0.18600   0.71300   Biso      1.000     H          0.163556  
         H6        1.0000    0.72140   0.17700   0.31720   Biso      1.000     H          0.101589  
         H7        1.0000    0.40510   0.31720   0.39350   Biso      1.000     H          0.147074  
         H8        1.0000    0.94640   0.18600   0.78700   Biso      1.000     H          0.163556  
         H9        1.0000    0.94640   0.81400   0.28700   Biso      1.000     H          0.163556  
         H10       1.0000    0.61950   0.61300   0.90590   Biso      1.000     H          0.101361  
         H11       1.0000    0.68510   0.66270   0.95790   Biso      1.000     H          0.10438   
         H12       1.0000    0.90510   0.81720   0.39350   Biso      1.000     H          0.147074  
         H13       1.0000    0.69080   0.47520   0.85880   Biso      1.000     H          0.12211   
         H14       1.0000    0.64760   0.51660   0.71970   Biso      1.000     H          0.105939  
         H15       1.0000    0.82200   0.63640   0.32130   Biso      1.000     H          0.105408  
         H16       1.0000    0.74300   0.52600   0.68230   Biso      1.000     H          0.105498  
         H17       1.0000    0.77860   0.67700   0.18280   Biso      1.000     H          0.101589  
         H18       1.0000    0.75440   0.73360   0.63670   Biso      1.000     H          0.125766  
         H19       1.0000    0.24560   0.73360   0.86330   Biso      1.000     H          0.125766  
         H20       1.0000    0.81040   0.81670   0.42700   Biso      1.000     H          0.107385  
         H21       1.0000    0.18960   0.18330   0.57300   Biso      1.000     H          0.107385  
         H22       1.0000    0.25440   0.23360   0.63670   Biso      1.000     H          0.125766  
         H23       1.0000    0.32200   0.13640   0.32130   Biso      1.000     H          0.105408  
         H24       1.0000    0.24300   0.02600   0.68230   Biso      1.000     H          0.105498  
         H25       1.0000    0.31040   0.68330   0.92700   Biso      1.000     H          0.107385  
         H26       1.0000    0.35240   0.48340   0.28030   Biso      1.000     H          0.105939  
         H27       1.0000    0.27860   0.82300   0.68280   Biso      1.000     H          0.101589  
         H28       1.0000    0.32200   0.86360   0.82130   Biso      1.000     H          0.105408  
         H29       1.0000    0.30920   0.52480   0.14120   Biso      1.000     H          0.12211   
         H30       1.0000    0.40510   0.68280   0.89350   Biso      1.000     H          0.147075  
         H31       1.0000    0.44640   0.68600   0.78700   Biso      1.000     H          0.163556  
         H32       1.0000    0.31490   0.33730   0.04210   Biso      1.000     H          0.10438   
         H33       1.0000    0.25700   0.52600   0.81770   Biso      1.000     H          0.105498  
         H34       1.0000    0.24560   0.26640   0.36330   Biso      1.000     H          0.125766  
         H35       1.0000    0.35240   0.51660   0.78030   Biso      1.000     H          0.105939  
         H36       1.0000    0.30920   0.47520   0.64120   Biso      1.000     H          0.12211   
         H37       1.0000    0.31040   0.31670   0.42700   Biso      1.000     H          0.107385  
         H38       1.0000    0.31490   0.66270   0.54210   Biso      1.000     H          0.10438   
         H39       1.0000    0.38050   0.38700   0.09410   Biso      1.000     H          0.101361  
         H40       1.0000    0.11950   0.11300   0.90590   Biso      1.000     H          0.101361  
         H41       1.0000    0.18510   0.16270   0.95790   Biso      1.000     H          0.10438   
         H42       1.0000    0.38050   0.61300   0.59410   Biso      1.000     H          0.101361  
         H43       1.0000    0.19080   0.97520   0.85880   Biso      1.000     H          0.12211   
         H44       1.0000    0.14760   0.01660   0.71970   Biso      1.000     H          0.105939  
         H45       1.0000    0.27860   0.17700   0.18280   Biso      1.000     H          0.101589  
         H46       1.0000    0.72140   0.82300   0.81720   Biso      1.000     H          0.101589  
         H47       1.0000    0.67800   0.86360   0.67870   Biso      1.000     H          0.105408  
         H48       1.0000    0.68960   0.68330   0.57300   Biso      1.000     H          0.107385  
         H49       1.0000    0.59490   0.68280   0.60650   Biso      1.000     H          0.147075  
         H50       1.0000    0.18960   0.81670   0.07300   Biso      1.000     H          0.107385  
         H51       1.0000    0.74560   0.76640   0.36330   Biso      1.000     H          0.125766  
         H52       1.0000    0.74560   0.23360   0.86330   Biso      1.000     H          0.125766  
         H53       1.0000    0.22140   0.67700   0.31720   Biso      1.000     H          0.101589  
         H54       1.0000    0.17800   0.63640   0.17870   Biso      1.000     H          0.105408  
         H55       1.0000    0.09490   0.81720   0.10650   Biso      1.000     H          0.147075  
         H56       1.0000    0.05360   0.81400   0.21300   Biso      1.000     H          0.163556  
         H57       1.0000    0.75700   0.02600   0.81770   Biso      1.000     H          0.105498  
         H58       1.0000    0.85240   0.01660   0.78030   Biso      1.000     H          0.105939  
         H59       1.0000    0.80920   0.97520   0.64120   Biso      1.000     H          0.12211   
         H60       1.0000    0.81490   0.16270   0.54210   Biso      1.000     H          0.10438   
         H61       1.0000    0.88050   0.11300   0.59410   Biso      1.000     H          0.101361  
         H62       1.0000    0.61950   0.38700   0.40590   Biso      1.000     H          0.101361  
         H63       1.0000    0.68510   0.33730   0.45790   Biso      1.000     H          0.10438   
         H64       1.0000    0.69080   0.52480   0.35880   Biso      1.000     H          0.12211   
         H65       1.0000    0.64760   0.48340   0.21970   Biso      1.000     H          0.105939  
         H66       1.0000    0.55360   0.31400   0.21300   Biso      1.000     H          0.163556  
         H67       1.0000    0.74300   0.47400   0.18230   Biso      1.000     H          0.105498  
         H68       1.0000    0.59490   0.31720   0.10650   Biso      1.000     H          0.147075  
         H69       1.0000    0.75440   0.26640   0.13670   Biso      1.000     H          0.125766  
         H70       1.0000    0.68960   0.31670   0.07300   Biso      1.000     H          0.107385  
         H71       1.0000    0.25440   0.76640   0.13670   Biso      1.000     H          0.125766  
         H72       1.0000    0.81040   0.18330   0.92700   Biso      1.000     H          0.107385  
         H73       1.0000    0.25700   0.47400   0.31770   Biso      1.000     H          0.105498  
         H74       1.0000    0.81490   0.83730   0.04210   Biso      1.000     H          0.10438   
         H75       1.0000    0.14760   0.98340   0.21970   Biso      1.000     H          0.105939  
         H76       1.0000    0.85240   0.98340   0.28030   Biso      1.000     H          0.105939  
         H77       1.0000    0.55360   0.68600   0.71300   Biso      1.000     H          0.163556  
         H78       1.0000    0.75700   0.97400   0.31770   Biso      1.000     H          0.105498  
         H79       1.0000    0.77860   0.32300   0.68280   Biso      1.000     H          0.101589  
         H80       1.0000    0.90510   0.18280   0.89350   Biso      1.000     H          0.147074  
         H81       1.0000    0.19080   0.02480   0.35880   Biso      1.000     H          0.12211   
         H82       1.0000    0.88050   0.88700   0.09410   Biso      1.000     H          0.101361  
         H83       1.0000    0.80920   0.02480   0.14120   Biso      1.000     H          0.12211   
         H84       1.0000    0.24300   0.97400   0.18230   Biso      1.000     H          0.105498  
         H85       1.0000    0.44640   0.31400   0.28700   Biso      1.000     H          0.163556  
         H86       1.0000    0.18510   0.83730   0.45790   Biso      1.000     H          0.10438   
         H87       1.0000    0.11950   0.88700   0.40590   Biso      1.000     H          0.101361  
         H88       1.0000    0.82200   0.36360   0.82130   Biso      1.000     H          0.105408  
         N1        1.0000    0.63706   0.24725   0.29154   Biso      1.000     N          -0.075663           
         N2        1.0000    0.13706   0.74725   0.29154   Biso      1.000     N          -0.075663           
         N3        1.0000    0.86294   0.74725   0.20846   Biso      1.000     N          -0.075663           
         N4        1.0000    0.86294   0.25275   0.70846   Biso      1.000     N          -0.075663           
         N5        1.0000    0.63706   0.75275   0.79154   Biso      1.000     N          -0.075663           
         N6        1.0000    0.13706   0.25275   0.79154   Biso      1.000     N          -0.075663           
         N7        1.0000    0.36294   0.24725   0.20846   Biso      1.000     N          -0.075663           
         N8        1.0000    0.36294   0.75275   0.70846   Biso      1.000     N          -0.075663           
         O1        1.0000    0.92950   0.39830   0.03520   Biso      1.000     O          -0.767447           
         O2        1.0000    0.42950   0.10170   0.53520   Biso      1.000     O          -0.767447           
         O3        1.0000    0.52073   0.16910   0.45030   Biso      1.000     O          -0.797393           
         O4        1.0000    0.20556   0.46450   0.02840   Biso      1.000     O          -0.566598           
         O5        1.0000    0.16699   0.33220   0.14870   Biso      1.000     O          -0.583671           
         O6        1.0000    0.66699   0.16780   0.64870   Biso      1.000     O          -0.583671           
         O7        1.0000    0.70556   0.03550   0.52840   Biso      1.000     O          -0.566598           
         O8        1.0000    0.02073   0.33090   0.95030   Biso      1.000     O          -0.797393           
         O9        1.0000    0.43986   0.03330   0.29750   Biso      1.000     O          -0.790475           
         O10       1.0000    0.93986   0.46670   0.79750   Biso      1.000     O          -0.790475           
         O11       1.0000    0.66699   0.83220   0.14870   Biso      1.000     O          -0.583671           
         O12       1.0000    0.20556   0.53550   0.52840   Biso      1.000     O          -0.566598           
         O13       1.0000    0.83301   0.33220   0.35130   Biso      1.000     O          -0.583671           
         O14       1.0000    0.79444   0.46450   0.47160   Biso      1.000     O          -0.566598           
         O15       1.0000    0.06014   0.53330   0.20250   Biso      1.000     O          -0.790475           
         O16       1.0000    0.07050   0.60170   0.96480   Biso      1.000     O          -0.767447           
         O17       1.0000    0.97927   0.66910   0.04970   Biso      1.000     O          -0.797392           
         O18       1.0000    0.29444   0.96450   0.47160   Biso      1.000     O          -0.566598           
         O19       1.0000    0.33301   0.83220   0.35130   Biso      1.000     O          -0.583671           
         O20       1.0000    0.47927   0.16910   0.04970   Biso      1.000     O          -0.797392           
         O21       1.0000    0.57050   0.10170   0.96480   Biso      1.000     O          -0.767447           
         O22       1.0000    0.56014   0.03330   0.20250   Biso      1.000     O          -0.790475           
         O23       1.0000    0.56014   0.96670   0.70250   Biso      1.000     O          -0.790475           
         O24       1.0000    0.57050   0.89830   0.46480   Biso      1.000     O          -0.767447           
         O25       1.0000    0.47927   0.83090   0.54970   Biso      1.000     O          -0.797393           
         O26       1.0000    0.16699   0.66780   0.64870   Biso      1.000     O          -0.583671           
         O27       1.0000    0.83301   0.66780   0.85130   Biso      1.000     O          -0.583671           
         O28       1.0000    0.79444   0.53550   0.97160   Biso      1.000     O          -0.566598           
         O29       1.0000    0.06014   0.46670   0.70250   Biso      1.000     O          -0.790475           
         O30       1.0000    0.52073   0.83090   0.95030   Biso      1.000     O          -0.797392           
         O31       1.0000    0.42950   0.89830   0.03520   Biso      1.000     O          -0.767447           
         O32       1.0000    0.43986   0.96670   0.79750   Biso      1.000     O          -0.790475           
         O33       1.0000    0.93986   0.53330   0.29750   Biso      1.000     O          -0.790475           
         O34       1.0000    0.02073   0.66910   0.45030   Biso      1.000     O          -0.797393           
         O35       1.0000    0.92950   0.60170   0.53520   Biso      1.000     O          -0.767447           
         O36       1.0000    0.33301   0.16780   0.85130   Biso      1.000     O          -0.583671           
         O37       1.0000    0.29444   0.03550   0.97160   Biso      1.000     O          -0.566598           
         O38       1.0000    0.97927   0.33090   0.54970   Biso      1.000     O          -0.797392           
         O39       1.0000    0.07050   0.39830   0.46480   Biso      1.000     O          -0.767447           
         O40       1.0000    0.70556   0.96450   0.02840   Biso      1.000     O          -0.566598           
         P1        1.0000    0.54577   0.13320   0.09343   Biso      1.000     P          1.322407  
         P2        1.0000    0.95423   0.36680   0.90657   Biso      1.000     P          1.322407  
         P3        1.0000    0.04577   0.36680   0.59343   Biso      1.000     P          1.322407  
         P4        1.0000    0.95423   0.63320   0.40657   Biso      1.000     P          1.322407  
         P5        1.0000    0.45423   0.86680   0.90657   Biso      1.000     P          1.322407  
         P6        1.0000    0.04577   0.63320   0.09343   Biso      1.000     P          1.322407  
         P7        1.0000    0.45423   0.13320   0.40657   Biso      1.000     P          1.322407  
         P8        1.0000    0.54577   0.86680   0.59343   Biso      1.000     P          1.322407 