
##########################################################################
#               Crystallographic Information Format file
#               Produced by PyCifRW module
#
#  This is a CIF file.  CIF has been adopted by the International
#  Union of Crystallography as the standard for data archiving and
#  transmission.
#
#  For information on this file format, follow the CIF links at
#  http://www.iucr.org
##########################################################################

data_image0

_cell_length_a                          8.3989
_cell_length_b                          8.535
_cell_length_c                          11.4883
_cell_angle_alpha                       89.325
_cell_angle_beta                        69.014
_cell_angle_gamma                       67.269
_symmetry_space_group_name_H-M          'P 1'
_symmetry_int_tables_number             1
loop_
  _symmetry_equiv_pos_as_xyz
         'x, y, z' 
loop_
  _atom_site_label
  _atom_site_occupancy
  _atom_site_fract_x
  _atom_site_fract_y
  _atom_site_fract_z
  _atom_site_thermal_displace_type
  _atom_site_B_iso_or_equiv
  _atom_site_type_symbol
  _atom_site_charge
         C1        1.0000    0.75000   0.72360   0.01110   Biso      1.000     C          -0.010634999999999999         
         C2        1.0000    0.71710   0.29700   0.84820   Biso      1.000     C          0.5377770000000001  
         C3        1.0000    0.19980   0.45490   0.81700   Biso      1.000     C          0.5665640000000001  
         C4        1.0000    0.24090   0.42330   0.93370   Biso      1.000     C          0.082826  
         C5        1.0000    0.23370   0.12450   0.93570   Biso      1.000     C          0.612079  
         C6        1.0000    0.25000   0.27640   0.98890   Biso      1.000     C          -0.010634000000000001         
         C7        1.0000    0.27630   0.26530   0.10200   Biso      1.000     C          -0.073153           
         C8        1.0000    0.31130   0.38440   0.28270   Biso      1.000     C          0.653354  
         C9        1.0000    0.28860   0.40080   0.15790   Biso      1.000     C          -0.08313999999999999          
         C10       1.0000    0.27980   0.54370   0.09620   Biso      1.000     C          0.0863    
         C11       1.0000    0.28290   0.70300   0.15180   Biso      1.000     C          0.537778  
         C12       1.0000    0.68870   0.61560   0.71730   Biso      1.000     C          0.653354  
         C13       1.0000    0.72370   0.73470   0.89800   Biso      1.000     C          -0.073152           
         C14       1.0000    0.76630   0.87550   0.06430   Biso      1.000     C          0.612079  
         C15       1.0000    0.75910   0.57670   0.06630   Biso      1.000     C          0.082826  
         C16       1.0000    0.80020   0.54510   0.18300   Biso      1.000     C          0.5665640000000001  
         C17       1.0000    0.72020   0.45630   0.90380   Biso      1.000     C          0.0863    
         C18       1.0000    0.71140   0.59920   0.84210   Biso      1.000     C          -0.08313999999999999          
         Cd1       1.0000    0.23633   0.80077   0.88986   Biso      1.000     Cd          1.0598040000000002  
         Cd2       1.0000    0.85198   0.56158   0.40771   Biso      1.000     Cd          1.086625  
         Cd3       1.0000    0.76367   0.19923   0.11014   Biso      1.000     Cd          1.0598049999999999  
         Cd4       1.0000    0.14802   0.43842   0.59229   Biso      1.000     Cd          1.086626  
         H1        1.0000    0.28560   0.16710   0.14000   Biso      1.000     H          0.15325999999999998           
         H2        1.0000    0.71440   0.83290   0.86000   Biso      1.000     H          0.15325999999999998           
         N1        1.0000    0.26030   0.55210   0.98570   Biso      1.000     N          -0.273223           
         N2        1.0000    0.73970   0.44790   0.01430   Biso      1.000     N          -0.27322399999999997          
         O1        1.0000    0.62220   0.99170   0.14250   Biso      1.000     O          -0.5291   
         O2        1.0000    0.91940   0.88720   0.01810   Biso      1.000     O          -0.573932           
         O3        1.0000    0.52870   0.67590   0.71750   Biso      1.000     O          -0.5131939999999999           
         O4        1.0000    0.83850   0.57520   0.61880   Biso      1.000     O          -0.6067859999999999           
         O5        1.0000    0.70840   0.29840   0.74220   Biso      1.000     O          -0.5691149999999999           
         O6        1.0000    0.72840   0.17490   0.91170   Biso      1.000     O          -0.561929           
         O7        1.0000    0.19880   0.58820   0.77140   Biso      1.000     O          -0.552992           
         O8        1.0000    0.08060   0.11280   0.98190   Biso      1.000     O          -0.573932           
         O9        1.0000    0.37780   0.00830   0.85750   Biso      1.000     O          -0.529099           
         O10       1.0000    0.47130   0.32410   0.28250   Biso      1.000     O          -0.5131939999999999           
         O11       1.0000    0.16150   0.42480   0.38120   Biso      1.000     O          -0.6067859999999999           
         O12       1.0000    0.29160   0.70160   0.25780   Biso      1.000     O          -0.5691149999999999           
         O13       1.0000    0.27160   0.82510   0.08830   Biso      1.000     O          -0.561929           
         O14       1.0000    0.83820   0.65400   0.22700   Biso      1.000     O          -0.491393           
         O15       1.0000    0.16180   0.34600   0.77300   Biso      1.000     O          -0.491393           
         O16       1.0000    0.80120   0.41180   0.22860   Biso      1.000     O          -0.5529930000000001 