
##########################################################################
#               Crystallographic Information Format file
#               Produced by PyCifRW module
#
#  This is a CIF file.  CIF has been adopted by the International
#  Union of Crystallography as the standard for data archiving and
#  transmission.
#
#  For information on this file format, follow the CIF links at
#  http://www.iucr.org
##########################################################################

data_image0

_cell_length_a                          20.07
_cell_length_b                          20.07
_cell_length_c                          12.733
_cell_angle_alpha                       90
_cell_angle_beta                        90
_cell_angle_gamma                       90
_symmetry_space_group_name_H-M          'P 1'
_symmetry_int_tables_number             1
loop_
  _symmetry_equiv_pos_as_xyz
         'x, y, z' 
loop_
  _atom_site_label
  _atom_site_occupancy
  _atom_site_fract_x
  _atom_site_fract_y
  _atom_site_fract_z
  _atom_site_thermal_displace_type
  _atom_site_B_iso_or_equiv
  _atom_site_type_symbol
  _atom_site_charge
         C1        1.0000    0.57530   0.29640   0.47560   Biso      1.000     C          -0.000451           
         C2        1.0000    0.73630   0.27190   0.72980   Biso      1.000     C          -0.145338           
         C3        1.0000    0.26370   0.72810   0.27020   Biso      1.000     C          -0.145337           
         C4        1.0000    0.42470   0.70360   0.52440   Biso      1.000     C          -0.000453           
         C5        1.0000    0.34420   0.55790   0.25180   Biso      1.000     C          -0.049301           
         C6        1.0000    0.15580   0.94210   0.24820   Biso      1.000     C          -0.049297           
         C7        1.0000    0.07530   0.79640   0.97560   Biso      1.000     C          -0.000453           
         C8        1.0000    0.23630   0.77190   0.22980   Biso      1.000     C          -0.145165           
         C9        1.0000    0.02190   0.51370   0.52020   Biso      1.000     C          -0.145338           
         C10       1.0000    0.04640   0.67470   0.77440   Biso      1.000     C          -0.000452           
         C11       1.0000    0.84420   0.55790   0.24820   Biso      1.000     C          -0.049303           
         C12       1.0000    0.92470   0.70360   0.97560   Biso      1.000     C          -0.000452           
         C13       1.0000    0.76370   0.72810   0.22980   Biso      1.000     C          -0.145338           
         C14       1.0000    0.19210   0.59420   0.50180   Biso      1.000     C          -0.049304           
         C15       1.0000    0.52190   0.01370   0.02020   Biso      1.000     C          -0.145338           
         C16       1.0000    0.34420   0.05790   0.74820   Biso      1.000     C          -0.049304           
         C17       1.0000    0.42470   0.20360   0.47560   Biso      1.000     C          -0.000453           
         C18       1.0000    0.26370   0.22810   0.72980   Biso      1.000     C          -0.145338           
         C19       1.0000    0.54640   0.17470   0.27440   Biso      1.000     C          -0.000452           
         C20       1.0000    0.69210   0.09420   0.00180   Biso      1.000     C          -0.049306           
         C21       1.0000    0.80790   0.90580   0.50180   Biso      1.000     C          -0.049302           
         C22       1.0000    0.95360   0.82530   0.77440   Biso      1.000     C          -0.000452           
         C23       1.0000    0.97810   0.98630   0.52020   Biso      1.000     C          -0.145339           
         C24       1.0000    0.47810   0.48630   0.02020   Biso      1.000     C          -0.145337           
         C25       1.0000    0.45360   0.32530   0.27440   Biso      1.000     C          -0.000452           
         C26       1.0000    0.65580   0.44210   0.74820   Biso      1.000     C          -0.049304           
         C27       1.0000    0.30790   0.40580   0.00180   Biso      1.000     C          -0.049303           
         C28       1.0000    0.84420   0.05790   0.75180   Biso      1.000     C          -0.049294           
         C29       1.0000    0.57530   0.79640   0.52440   Biso      1.000     C          -0.000453           
         C30       1.0000    0.65580   0.94210   0.25180   Biso      1.000     C          -0.049297           
         C31       1.0000    0.69210   0.59420   0.99820   Biso      1.000     C          -0.049297           
         C32       1.0000    0.54640   0.67470   0.72560   Biso      1.000     C          -0.000453           
         C33       1.0000    0.04640   0.17470   0.22560   Biso      1.000     C          -0.000453           
         C34       1.0000    0.52190   0.51370   0.97980   Biso      1.000     C          -0.145165           
         C35       1.0000    0.19210   0.09420   0.49820   Biso      1.000     C          -0.049298           
         C36       1.0000    0.23630   0.27190   0.77020   Biso      1.000     C          -0.145166           
         C37       1.0000    0.07530   0.29640   0.02440   Biso      1.000     C          -0.000453           
         C38       1.0000    0.73630   0.77190   0.27020   Biso      1.000     C          -0.145166           
         C39       1.0000    0.30790   0.90580   0.99820   Biso      1.000     C          -0.049294           
         C40       1.0000    0.47810   0.98630   0.97980   Biso      1.000     C          -0.145166           
         C41       1.0000    0.15580   0.44210   0.75180   Biso      1.000     C          -0.049296           
         C42       1.0000    0.76370   0.22810   0.77020   Biso      1.000     C          -0.145165           
         C43       1.0000    0.80790   0.40580   0.49820   Biso      1.000     C          -0.049294           
         C44       1.0000    0.95360   0.32530   0.22560   Biso      1.000     C          -0.000454           
         C45       1.0000    0.97810   0.48630   0.47980   Biso      1.000     C          -0.145165           
         C46       1.0000    0.92470   0.20360   0.02440   Biso      1.000     C          -0.000455           
         C47       1.0000    0.45360   0.82530   0.72560   Biso      1.000     C          -0.000455           
         C48       1.0000    0.02190   0.01370   0.47980   Biso      1.000     C          -0.145166           
         Cd1       1.0000    0.00000   0.25000   0.12500   Biso      1.000     Cd          0.403088  
         Cd2       1.0000    0.50000   0.75000   0.62500   Biso      1.000     Cd          0.403088  
         Cd3       1.0000    0.68096   0.85384   0.34333   Biso      1.000     Cd          0.683566  
         Cd4       1.0000    0.10384   0.56904   0.59333   Biso      1.000     Cd          0.683587  
         Cd5       1.0000    0.81904   0.14616   0.84333   Biso      1.000     Cd          0.683565  
         Cd6       1.0000    0.31904   0.64616   0.34333   Biso      1.000     Cd          0.683589  
         Cd7       1.0000    0.18096   0.35384   0.84333   Biso      1.000     Cd          0.683564  
         Cd8       1.0000    0.60384   0.06904   0.09333   Biso      1.000     Cd          0.683587  
         Cd9       1.0000    0.10384   0.06904   0.40667   Biso      1.000     Cd          0.683565  
         Cd10      1.0000    0.00000   0.75000   0.87500   Biso      1.000     Cd          0.40309   
         Cd11      1.0000    0.31904   0.14616   0.65667   Biso      1.000     Cd          0.683588  
         Cd12      1.0000    0.18096   0.85384   0.15667   Biso      1.000     Cd          0.683565  
         Cd13      1.0000    0.89616   0.43096   0.40667   Biso      1.000     Cd          0.683566  
         Cd14      1.0000    0.81904   0.64616   0.15667   Biso      1.000     Cd          0.683588  
         Cd15      1.0000    0.39616   0.93096   0.90667   Biso      1.000     Cd          0.683565  
         Cd16      1.0000    0.89616   0.93096   0.59333   Biso      1.000     Cd          0.68359   
         Cd17      1.0000    0.68096   0.35384   0.65667   Biso      1.000     Cd          0.683588  
         Cd18      1.0000    0.60384   0.56904   0.90667   Biso      1.000     Cd          0.683564  
         Cd19      1.0000    0.39616   0.43096   0.09333   Biso      1.000     Cd          0.683589  
         Cd20      1.0000    0.50000   0.25000   0.37500   Biso      1.000     Cd          0.40309   
         N1        1.0000    0.64110   0.48670   0.79800   Biso      1.000     N          -0.283606           
         N2        1.0000    0.56870   0.63730   0.78160   Biso      1.000     N          -0.305737           
         N3        1.0000    0.61270   0.81870   0.46840   Biso      1.000     N          -0.305738           
         N4        1.0000    0.76330   0.89110   0.45200   Biso      1.000     N          -0.283606           
         N5        1.0000    0.93130   0.36270   0.28160   Biso      1.000     N          -0.305738           
         N6        1.0000    0.35890   0.01330   0.79800   Biso      1.000     N          -0.283606           
         N7        1.0000    0.06870   0.13730   0.28160   Biso      1.000     N          -0.305738           
         N8        1.0000    0.43130   0.86270   0.78160   Biso      1.000     N          -0.305737           
         N9        1.0000    0.14110   0.98670   0.29800   Biso      1.000     N          -0.283607           
         N10       1.0000    0.11270   0.31870   0.96840   Biso      1.000     N          -0.305737           
         N11       1.0000    0.26330   0.39110   0.95200   Biso      1.000     N          -0.283606           
         N12       1.0000    0.85890   0.51330   0.29800   Biso      1.000     N          -0.283605           
         N13       1.0000    0.35890   0.51330   0.20200   Biso      1.000     N          -0.283606           
         N14       1.0000    0.61270   0.31870   0.53160   Biso      1.000     N          -0.305739           
         N15       1.0000    0.88730   0.18130   0.96840   Biso      1.000     N          -0.305737           
         N16       1.0000    0.93130   0.86270   0.71840   Biso      1.000     N          -0.30574  
         N17       1.0000    0.64110   0.98670   0.20200   Biso      1.000     N          -0.283607           
         N18       1.0000    0.56870   0.13730   0.21840   Biso      1.000     N          -0.305739           
         N19       1.0000    0.38730   0.18130   0.53160   Biso      1.000     N          -0.305739           
         N20       1.0000    0.23670   0.10890   0.54800   Biso      1.000     N          -0.283607           
         N21       1.0000    0.14110   0.48670   0.70200   Biso      1.000     N          -0.283607           
         N22       1.0000    0.06870   0.63730   0.71840   Biso      1.000     N          -0.305739           
         N23       1.0000    0.88730   0.68130   0.03160   Biso      1.000     N          -0.305739           
         N24       1.0000    0.73670   0.60890   0.04800   Biso      1.000     N          -0.283607           
         N25       1.0000    0.23670   0.60890   0.45200   Biso      1.000     N          -0.283607           
         N26       1.0000    0.38730   0.68130   0.46840   Biso      1.000     N          -0.305741           
         N27       1.0000    0.11270   0.81870   0.03160   Biso      1.000     N          -0.305737           
         N28       1.0000    0.26330   0.89110   0.04800   Biso      1.000     N          -0.283605           
         N29       1.0000    0.43130   0.36270   0.21840   Biso      1.000     N          -0.305739           
         N30       1.0000    0.73670   0.10890   0.95200   Biso      1.000     N          -0.283606           
         N31       1.0000    0.76330   0.39110   0.54800   Biso      1.000     N          -0.283606           
         N32       1.0000    0.85890   0.01330   0.70200   Biso      1.000     N          -0.283607 