
##########################################################################
#               Crystallographic Information Format file
#               Produced by PyCifRW module
#
#  This is a CIF file.  CIF has been adopted by the International
#  Union of Crystallography as the standard for data archiving and
#  transmission.
#
#  For information on this file format, follow the CIF links at
#  http://www.iucr.org
##########################################################################

data_image0

_cell_length_a                          10.8908
_cell_length_b                          11.5537
_cell_length_c                          16.7793
_cell_angle_alpha                       90
_cell_angle_beta                        90
_cell_angle_gamma                       90
_symmetry_space_group_name_H-M          'P 1'
_symmetry_int_tables_number             1
loop_
  _symmetry_equiv_pos_as_xyz
         'x, y, z' 
loop_
  _atom_site_label
  _atom_site_occupancy
  _atom_site_fract_x
  _atom_site_fract_y
  _atom_site_fract_z
  _atom_site_thermal_displace_type
  _atom_site_B_iso_or_equiv
  _atom_site_type_symbol
  _atom_site_charge
         C1        1.0000    0.76830   0.34330   0.60750   Biso      1.000     C          0.636588  
         C2        1.0000    0.00000   0.65890   0.38950   Biso      1.000     C          -0.103176           
         C3        1.0000    0.00000   0.19700   0.74270   Biso      1.000     C          -0.050075           
         C4        1.0000    0.00000   0.34110   0.61050   Biso      1.000     C          -0.10316199999999999          
         C5        1.0000    0.50000   0.69700   0.75730   Biso      1.000     C          -0.049746           
         C6        1.0000    0.50000   0.84110   0.88950   Biso      1.000     C          -0.10307000000000001          
         C7        1.0000    0.50000   0.30300   0.24270   Biso      1.000     C          -0.049758           
         C8        1.0000    0.50000   0.15890   0.11050   Biso      1.000     C          -0.103099           
         C9        1.0000    0.61070   0.26770   0.20930   Biso      1.000     C          -0.098013           
         C10       1.0000    0.61130   0.19470   0.14320   Biso      1.000     C          -0.020327           
         C11       1.0000    0.61070   0.73230   0.79070   Biso      1.000     C          -0.09871  
         C12       1.0000    0.61130   0.80530   0.85680   Biso      1.000     C          -0.018662           
         C13       1.0000    0.73170   0.15670   0.10750   Biso      1.000     C          0.636651  
         C14       1.0000    0.73170   0.84330   0.89250   Biso      1.000     C          0.636659  
         C15       1.0000    0.76830   0.65670   0.39250   Biso      1.000     C          0.6365890000000001  
         C16       1.0000    0.38870   0.80530   0.85680   Biso      1.000     C          -0.020322999999999997         
         C17       1.0000    0.38930   0.73230   0.79070   Biso      1.000     C          -0.098037           
         C18       1.0000    0.38870   0.19470   0.14320   Biso      1.000     C          -0.018666           
         C19       1.0000    0.88930   0.23230   0.70930   Biso      1.000     C          -0.09876900000000001          
         C20       1.0000    0.88870   0.30530   0.64320   Biso      1.000     C          -0.018674           
         C21       1.0000    0.88930   0.76770   0.29070   Biso      1.000     C          -0.09866699999999999          
         C22       1.0000    0.88870   0.69470   0.35680   Biso      1.000     C          -0.018677000000000003         
         C23       1.0000    0.38930   0.26770   0.20930   Biso      1.000     C          -0.098759           
         C24       1.0000    0.23170   0.34330   0.60750   Biso      1.000     C          0.6368699999999999  
         C25       1.0000    0.23170   0.65670   0.39250   Biso      1.000     C          0.636863  
         C26       1.0000    0.11130   0.69470   0.35680   Biso      1.000     C          -0.020478           
         C27       1.0000    0.11070   0.23230   0.70930   Biso      1.000     C          -0.097962           
         C28       1.0000    0.11130   0.30530   0.64320   Biso      1.000     C          -0.020482           
         C29       1.0000    0.26830   0.15670   0.10750   Biso      1.000     C          0.6366470000000001  
         C30       1.0000    0.26830   0.84330   0.89250   Biso      1.000     C          0.63666   
         C31       1.0000    0.11070   0.76770   0.29070   Biso      1.000     C          -0.09807  
         C32       1.0000    0.00000   0.80300   0.25730   Biso      1.000     C          -0.050078           
         Cu1       1.0000    0.36202   0.50000   0.50000   Biso      1.000     Cu          1.0651950000000001  
         Cu2       1.0000    0.50000   0.32138   0.63534   Biso      1.000     Cu          0.9996360000000001  
         Cu3       1.0000    0.50000   0.67862   0.36466   Biso      1.000     Cu          0.9995649999999999  
         Cu4       1.0000    0.63798   0.50000   0.50000   Biso      1.000     Cu          1.0635860000000001  
         Cu5       1.0000    0.00000   0.82138   0.86466   Biso      1.000     Cu          0.9987290000000001  
         Cu6       1.0000    0.00000   0.17862   0.13534   Biso      1.000     Cu          0.9985950000000001  
         Cu7       1.0000    0.13798   0.00000   0.00000   Biso      1.000     Cu          1.063002  
         Cu8       1.0000    0.86202   0.00000   0.00000   Biso      1.000     Cu          1.063     
         H1        1.0000    0.81390   0.20660   0.73160   Biso      1.000     H          0.14014200000000002           
         H2        1.0000    0.50000   0.66000   0.49700   Biso      1.000     H          0.434813  
         H3        1.0000    0.81390   0.79340   0.26840   Biso      1.000     H          0.14015999999999998           
         H4        1.0000    0.18610   0.79340   0.26840   Biso      1.000     H          0.14007999999999998           
         H5        1.0000    0.18610   0.20660   0.73160   Biso      1.000     H          0.140097  
         H6        1.0000    0.50000   0.89060   0.93460   Biso      1.000     H          0.137517  
         H7        1.0000    0.50000   0.34000   0.50300   Biso      1.000     H          0.43481499999999995           
         H8        1.0000    0.00000   0.16000   0.00300   Biso      1.000     H          0.434803  
         H9        1.0000    0.00000   0.39060   0.56540   Biso      1.000     H          0.137508  
         H10       1.0000    0.00000   0.84000   0.99700   Biso      1.000     H          0.434817  
         H11       1.0000    0.68610   0.29340   0.23160   Biso      1.000     H          0.140175  
         H12       1.0000    0.68610   0.70660   0.76840   Biso      1.000     H          0.140262  
         H13       1.0000    0.31390   0.70660   0.76840   Biso      1.000     H          0.140174  
         H14       1.0000    0.31390   0.29340   0.23160   Biso      1.000     H          0.140224  
         H15       1.0000    0.50000   0.10940   0.06540   Biso      1.000     H          0.137506  
         H16       1.0000    0.00000   0.60940   0.43460   Biso      1.000     H          0.137506  
         O1        1.0000    0.22950   0.58590   0.44830   Biso      1.000     O          -0.504242           
         O2        1.0000    0.00000   0.01370   0.21040   Biso      1.000     O          -0.66327  
         O3        1.0000    0.00000   0.98630   0.78960   Biso      1.000     O          -0.663293           
         O4        1.0000    0.67510   0.70300   0.36170   Biso      1.000     O          -0.567245           
         O5        1.0000    0.77050   0.41410   0.55170   Biso      1.000     O          -0.5082439999999999           
         O6        1.0000    0.67510   0.29700   0.63830   Biso      1.000     O          -0.567286           
         O7        1.0000    0.77050   0.58590   0.44830   Biso      1.000     O          -0.508234           
         O8        1.0000    0.88930   0.87840   0.12980   Biso      1.000     O          -0.646523           
         O9        1.0000    0.11070   0.12160   0.87020   Biso      1.000     O          -0.646526           
         O10       1.0000    0.11070   0.87840   0.12980   Biso      1.000     O          -0.645741           
         O11       1.0000    0.22950   0.41410   0.55170   Biso      1.000     O          -0.504231           
         O12       1.0000    0.32490   0.70300   0.36170   Biso      1.000     O          -0.569826           
         O13       1.0000    0.32490   0.29700   0.63830   Biso      1.000     O          -0.569833           
         O14       1.0000    0.88930   0.12160   0.87020   Biso      1.000     O          -0.6457229999999999           
         O15       1.0000    0.50000   0.48630   0.71040   Biso      1.000     O          -0.663095           
         O16       1.0000    0.50000   0.51370   0.28960   Biso      1.000     O          -0.663077           
         O17       1.0000    0.27050   0.08590   0.05170   Biso      1.000     O          -0.506678           
         O18       1.0000    0.17510   0.79700   0.86170   Biso      1.000     O          -0.569489           
         O19       1.0000    0.27050   0.91410   0.94830   Biso      1.000     O          -0.5047159999999999           
         O20       1.0000    0.17510   0.20300   0.13830   Biso      1.000     O          -0.5670189999999999           
         O21       1.0000    0.38930   0.37840   0.37020   Biso      1.000     O          -0.645698           
         O22       1.0000    0.38930   0.62160   0.62980   Biso      1.000     O          -0.6455810000000001           
         O23       1.0000    0.50000   0.60160   0.46710   Biso      1.000     O          -0.920401           
         O24       1.0000    0.82490   0.20300   0.13830   Biso      1.000     O          -0.569448           
         O25       1.0000    0.72950   0.91410   0.94830   Biso      1.000     O          -0.506678           
         O26       1.0000    0.82490   0.79700   0.86170   Biso      1.000     O          -0.567033           
         O27       1.0000    0.61070   0.62160   0.62980   Biso      1.000     O          -0.645645           
         O28       1.0000    0.61070   0.37840   0.37020   Biso      1.000     O          -0.64555  
         O29       1.0000    0.00000   0.89840   0.96710   Biso      1.000     O          -0.9184899999999999           
         O30       1.0000    0.00000   0.10160   0.03290   Biso      1.000     O          -0.918488           
         O31       1.0000    0.72950   0.08590   0.05170   Biso      1.000     O          -0.5047470000000001           
         O32       1.0000    0.50000   0.39840   0.53290   Biso      1.000     O          -0.9203790000000001           
         S1        1.0000    0.00000   0.89953   0.17428   Biso      1.000     S          1.223103  
         S2        1.0000    0.00000   0.10047   0.82572   Biso      1.000     S          1.2231040000000002  
         S3        1.0000    0.50000   0.60047   0.67428   Biso      1.000     S          1.2231100000000001  
         S4        1.0000    0.50000   0.39953   0.32572   Biso      1.000     S          1.223118 