
##########################################################################
#               Crystallographic Information Format file
#               Produced by PyCifRW module
#
#  This is a CIF file.  CIF has been adopted by the International
#  Union of Crystallography as the standard for data archiving and
#  transmission.
#
#  For information on this file format, follow the CIF links at
#  http://www.iucr.org
##########################################################################

data_image0

_cell_length_a                          10.28
_cell_length_b                          32.067
_cell_length_c                          6.9403
_cell_angle_alpha                       90
_cell_angle_beta                        90
_cell_angle_gamma                       90
_symmetry_space_group_name_H-M          'P 1'
_symmetry_int_tables_number             1
loop_
  _symmetry_equiv_pos_as_xyz
         'x, y, z' 
loop_
  _atom_site_label
  _atom_site_occupancy
  _atom_site_fract_x
  _atom_site_fract_y
  _atom_site_fract_z
  _atom_site_thermal_displace_type
  _atom_site_B_iso_or_equiv
  _atom_site_type_symbol
  _atom_site_charge
         C1        1.0000    0.43030   0.27060   0.89000   Biso      1.000     C          -0.049075           
         C2        1.0000    0.26500   0.88870   0.25000   Biso      1.000     C          0.575843  
         C3        1.0000    0.38800   0.86510   0.25000   Biso      1.000     C          0.002549  
         C4        1.0000    0.11410   0.67960   0.75000   Biso      1.000     C          -0.134231           
         C5        1.0000    0.23500   0.61130   0.75000   Biso      1.000     C          0.575847  
         C6        1.0000    0.11200   0.63490   0.75000   Biso      1.000     C          0.002549  
         C7        1.0000    0.61410   0.17960   0.75000   Biso      1.000     C          -0.134233           
         C8        1.0000    0.73500   0.11130   0.75000   Biso      1.000     C          0.575842  
         C9        1.0000    0.61200   0.13490   0.75000   Biso      1.000     C          0.00255   
         C10       1.0000    0.38590   0.82040   0.25000   Biso      1.000     C          -0.134233           
         C11       1.0000    0.11410   0.32040   0.25000   Biso      1.000     C          -0.134229           
         C12       1.0000    0.11200   0.36510   0.25000   Biso      1.000     C          0.002548  
         C13       1.0000    0.61410   0.82040   0.25000   Biso      1.000     C          -0.134233           
         C14       1.0000    0.73500   0.88870   0.25000   Biso      1.000     C          0.575843  
         C15       1.0000    0.61200   0.86510   0.25000   Biso      1.000     C          0.002549  
         C16       1.0000    0.88590   0.67960   0.75000   Biso      1.000     C          -0.134232           
         C17       1.0000    0.76500   0.61130   0.75000   Biso      1.000     C          0.575847  
         C18       1.0000    0.88800   0.63490   0.75000   Biso      1.000     C          0.002549  
         C19       1.0000    0.38590   0.17960   0.75000   Biso      1.000     C          -0.134235           
         C20       1.0000    0.00000   0.16490   0.25000   Biso      1.000     C          0.112062  
         C21       1.0000    0.26500   0.11130   0.75000   Biso      1.000     C          0.575838  
         C22       1.0000    0.88800   0.36510   0.25000   Biso      1.000     C          0.002547  
         C23       1.0000    0.88590   0.32040   0.25000   Biso      1.000     C          -0.134228           
         C24       1.0000    0.00000   0.25180   0.25000   Biso      1.000     C          0.160935  
         C25       1.0000    0.00000   0.29910   0.25000   Biso      1.000     C          0.073571  
         C26       1.0000    0.00000   0.38680   0.25000   Biso      1.000     C          -0.106005           
         C27       1.0000    0.50000   0.61880   0.25000   Biso      1.000     C          0.274179  
         C28       1.0000    0.50000   0.66490   0.25000   Biso      1.000     C          0.112034  
         C29       1.0000    0.50000   0.75180   0.25000   Biso      1.000     C          0.160905  
         C30       1.0000    0.50000   0.79910   0.25000   Biso      1.000     C          0.073568  
         C31       1.0000    0.50000   0.88680   0.25000   Biso      1.000     C          -0.106002           
         C32       1.0000    0.76500   0.38870   0.25000   Biso      1.000     C          0.57585   
         C33       1.0000    0.00000   0.88120   0.75000   Biso      1.000     C          0.274183  
         C34       1.0000    0.00000   0.74820   0.75000   Biso      1.000     C          0.160901  
         C35       1.0000    0.00000   0.70090   0.75000   Biso      1.000     C          0.07356900000000001           
         C36       1.0000    0.00000   0.61320   0.75000   Biso      1.000     C          -0.106001           
         C37       1.0000    0.50000   0.38120   0.75000   Biso      1.000     C          0.27418200000000004           
         C38       1.0000    0.50000   0.33510   0.75000   Biso      1.000     C          0.11206300000000001           
         C39       1.0000    0.50000   0.24820   0.75000   Biso      1.000     C          0.160936  
         C40       1.0000    0.50000   0.20090   0.75000   Biso      1.000     C          0.07356900000000001           
         C41       1.0000    0.50000   0.11320   0.75000   Biso      1.000     C          -0.106031           
         C42       1.0000    0.00000   0.83510   0.75000   Biso      1.000     C          0.11203099999999999           
         C43       1.0000    0.38800   0.13490   0.75000   Biso      1.000     C          0.002574  
         C44       1.0000    0.23500   0.38870   0.25000   Biso      1.000     C          0.575847  
         C45       1.0000    0.00000   0.11880   0.25000   Biso      1.000     C          0.274185  
         C46       1.0000    0.93100   0.18560   0.39100   Biso      1.000     C          -0.014681999999999999         
         C47       1.0000    0.06970   0.22940   0.11000   Biso      1.000     C          -0.049076999999999996         
         C48       1.0000    0.43030   0.72940   0.39000   Biso      1.000     C          -0.049066000000000005         
         C49       1.0000    0.56970   0.27060   0.89000   Biso      1.000     C          -0.049073           
         C50       1.0000    0.56900   0.31440   0.89100   Biso      1.000     C          -0.014683000000000002         
         C51       1.0000    0.06970   0.77060   0.89000   Biso      1.000     C          -0.049068           
         C52       1.0000    0.56900   0.68560   0.10900   Biso      1.000     C          -0.014669           
         C53       1.0000    0.56970   0.72940   0.11000   Biso      1.000     C          -0.049066000000000005         
         C54       1.0000    0.93100   0.81440   0.60900   Biso      1.000     C          -0.014677           
         C55       1.0000    0.06900   0.81440   0.89100   Biso      1.000     C          -0.014677           
         C56       1.0000    0.93100   0.18560   0.10900   Biso      1.000     C          -0.014681999999999999         
         C57       1.0000    0.93030   0.22940   0.11000   Biso      1.000     C          -0.049076999999999996         
         C58       1.0000    0.43100   0.68560   0.10900   Biso      1.000     C          -0.014668           
         C59       1.0000    0.93030   0.77060   0.61000   Biso      1.000     C          -0.049068           
         C60       1.0000    0.93030   0.22940   0.39000   Biso      1.000     C          -0.049076999999999996         
         C61       1.0000    0.43100   0.68560   0.39100   Biso      1.000     C          -0.014668           
         C62       1.0000    0.06900   0.81440   0.60900   Biso      1.000     C          -0.014677           
         C63       1.0000    0.43100   0.31440   0.89100   Biso      1.000     C          -0.014685           
         C64       1.0000    0.93030   0.77060   0.89000   Biso      1.000     C          -0.049068           
         C65       1.0000    0.93100   0.81440   0.89100   Biso      1.000     C          -0.014676           
         C66       1.0000    0.06900   0.18560   0.10900   Biso      1.000     C          -0.014681999999999999         
         C67       1.0000    0.56970   0.72940   0.39000   Biso      1.000     C          -0.049066000000000005         
         C68       1.0000    0.43030   0.72940   0.11000   Biso      1.000     C          -0.049066000000000005         
         C69       1.0000    0.56900   0.68560   0.39100   Biso      1.000     C          -0.014668           
         C70       1.0000    0.06900   0.18560   0.39100   Biso      1.000     C          -0.014681999999999999         
         C71       1.0000    0.43030   0.27060   0.61000   Biso      1.000     C          -0.049073           
         C72       1.0000    0.43100   0.31440   0.60900   Biso      1.000     C          -0.014684000000000001         
         C73       1.0000    0.56970   0.27060   0.61000   Biso      1.000     C          -0.049073           
         C74       1.0000    0.56900   0.31440   0.60900   Biso      1.000     C          -0.014683000000000002         
         C75       1.0000    0.06970   0.77060   0.61000   Biso      1.000     C          -0.049068           
         C76       1.0000    0.06970   0.22940   0.39000   Biso      1.000     C          -0.049076999999999996         
         H1        1.0000    0.80710   0.30620   0.25000   Biso      1.000     H          0.127628  
         H2        1.0000    0.19290   0.69380   0.75000   Biso      1.000     H          0.127629  
         H3        1.0000    0.30710   0.80620   0.25000   Biso      1.000     H          0.127631  
         H4        1.0000    0.69290   0.19380   0.75000   Biso      1.000     H          0.127628  
         H5        1.0000    0.00000   0.41580   0.25000   Biso      1.000     H          0.14471099999999998           
         H6        1.0000    0.19290   0.30620   0.25000   Biso      1.000     H          0.127628  
         H7        1.0000    0.00000   0.58420   0.75000   Biso      1.000     H          0.144709  
         H8        1.0000    0.69290   0.80620   0.25000   Biso      1.000     H          0.12763   
         H9        1.0000    0.80710   0.69380   0.75000   Biso      1.000     H          0.127629  
         H10       1.0000    0.50000   0.91580   0.25000   Biso      1.000     H          0.14470999999999998           
         H11       1.0000    0.30710   0.19380   0.75000   Biso      1.000     H          0.127629  
         H12       1.0000    0.50000   0.08420   0.75000   Biso      1.000     H          0.14471199999999998           
         N1        1.0000    0.50000   0.44390   0.83870   Biso      1.000     N          -0.006908           
         N2        1.0000    0.50000   0.40470   0.90890   Biso      1.000     N          -0.227688           
         N3        1.0000    0.00000   0.05610   0.16130   Biso      1.000     N          -0.006905           
         N4        1.0000    0.00000   0.09530   0.09110   Biso      1.000     N          -0.227688           
         N5        1.0000    0.50000   0.55610   0.16130   Biso      1.000     N          -0.006908           
         N6        1.0000    0.50000   0.59530   0.09110   Biso      1.000     N          -0.227688           
         N7        1.0000    0.00000   0.94390   0.66130   Biso      1.000     N          -0.006905           
         N8        1.0000    0.00000   0.05610   0.33870   Biso      1.000     N          -0.006698000000000001         
         N9        1.0000    0.50000   0.44390   0.66130   Biso      1.000     N          -0.006693000000000001         
         N10       1.0000    0.50000   0.40470   0.59110   Biso      1.000     N          -0.227712           
         N11       1.0000    0.50000   0.59530   0.40890   Biso      1.000     N          -0.22772699999999998          
         N12       1.0000    0.50000   0.55610   0.33870   Biso      1.000     N          -0.006675           
         N13       1.0000    0.00000   0.90470   0.90890   Biso      1.000     N          -0.227728           
         N14       1.0000    0.00000   0.09530   0.40890   Biso      1.000     N          -0.22771100000000002          
         N15       1.0000    0.00000   0.90470   0.59110   Biso      1.000     N          -0.22768899999999997          
         N16       1.0000    0.00000   0.94390   0.83870   Biso      1.000     N          -0.006679999999999999         
         O1        1.0000    0.16230   0.13040   0.75000   Biso      1.000     O          -0.5437270000000001           
         O2        1.0000    0.66230   0.36960   0.25000   Biso      1.000     O          -0.543725           
         O3        1.0000    0.26100   0.07230   0.75000   Biso      1.000     O          -0.473679           
         O4        1.0000    0.66230   0.63040   0.75000   Biso      1.000     O          -0.543737           
         O5        1.0000    0.76100   0.57230   0.75000   Biso      1.000     O          -0.47368299999999997          
         O6        1.0000    0.00000   0.03370   0.75000   Biso      1.000     O          -0.78973  
         O7        1.0000    0.50000   0.53370   0.75000   Biso      1.000     O          -0.789744           
         O8        1.0000    0.83770   0.86960   0.25000   Biso      1.000     O          -0.54373  
         O9        1.0000    0.73900   0.92770   0.25000   Biso      1.000     O          -0.473675           
         O10       1.0000    0.00000   0.96630   0.25000   Biso      1.000     O          -0.789737           
         O11       1.0000    0.33770   0.36960   0.25000   Biso      1.000     O          -0.543719           
         O12       1.0000    0.76100   0.42770   0.25000   Biso      1.000     O          -0.473682           
         O13       1.0000    0.50000   0.46630   0.25000   Biso      1.000     O          -0.789755           
         O14       1.0000    0.83770   0.13040   0.75000   Biso      1.000     O          -0.543728           
         O15       1.0000    0.73900   0.07230   0.75000   Biso      1.000     O          -0.473682           
         O16       1.0000    0.33770   0.63040   0.75000   Biso      1.000     O          -0.543738           
         O17       1.0000    0.23900   0.57230   0.75000   Biso      1.000     O          -0.47368599999999994          
         O18       1.0000    0.16230   0.86960   0.25000   Biso      1.000     O          -0.543729           
         O19       1.0000    0.26100   0.92770   0.25000   Biso      1.000     O          -0.473667           
         O20       1.0000    0.23900   0.42770   0.25000   Biso      1.000     O          -0.47367  
         Zn1       1.0000    0.00000   0.90383   0.25000   Biso      1.000     Zn          0.884956  
         Zn2       1.0000    0.00000   0.00000   0.50000   Biso      1.000     Zn          0.860592  
         Zn3       1.0000    0.50000   0.40383   0.25000   Biso      1.000     Zn          0.8849520000000001  
         Zn4       1.0000    0.00000   0.09617   0.75000   Biso      1.000     Zn          0.8849520000000001  
         Zn5       1.0000    0.50000   0.50000   0.00000   Biso      1.000     Zn          0.860614  
         Zn6       1.0000    0.00000   0.00000   0.00000   Biso      1.000     Zn          0.86059   
         Zn7       1.0000    0.50000   0.50000   0.50000   Biso      1.000     Zn          0.8605709999999999  
         Zn8       1.0000    0.50000   0.59617   0.75000   Biso      1.000     Zn          0.884956 