
##########################################################################
#               Crystallographic Information Format file
#               Produced by PyCifRW module
#
#  This is a CIF file.  CIF has been adopted by the International
#  Union of Crystallography as the standard for data archiving and
#  transmission.
#
#  For information on this file format, follow the CIF links at
#  http://www.iucr.org
##########################################################################

data_image0

_cell_length_a                          9.4092
_cell_length_b                          15.6563
_cell_length_c                          15.6563
_cell_angle_alpha                       84.8194
_cell_angle_beta                        72.5127
_cell_angle_gamma                       72.5129
_symmetry_space_group_name_H-M          'P 1'
_symmetry_int_tables_number             1
loop_
  _symmetry_equiv_pos_as_xyz
         'x, y, z' 
loop_
  _atom_site_label
  _atom_site_occupancy
  _atom_site_fract_x
  _atom_site_fract_y
  _atom_site_fract_z
  _atom_site_thermal_displace_type
  _atom_site_B_iso_or_equiv
  _atom_site_type_symbol
  _atom_site_charge
         C1        1.0000    0.21405   0.58472   0.75308   Biso      1.000     C          -0.25483  
         C2        1.0000    0.17450   0.68938   0.63262   Biso      1.000     C          -0.233854           
         C3        1.0000    0.29985   0.71742   0.63606   Biso      1.000     C          -0.019208000000000003         
         C4        1.0000    0.38165   0.67904   0.69658   Biso      1.000     C          -0.178818           
         C5        1.0000    0.91020   0.74558   0.88730   Biso      1.000     C          -0.000322           
         C6        1.0000    0.34329   0.79355   0.57735   Biso      1.000     C          0.624356  
         C7        1.0000    0.42753   0.57404   0.82050   Biso      1.000     C          0.596748  
         C8        1.0000    0.75197   0.82050   0.42596   Biso      1.000     C          0.596299  
         C9        1.0000    0.07936   0.57735   0.20645   Biso      1.000     C          0.624029  
         C10       1.0000    0.20250   0.88730   0.25442   Biso      1.000     C          -4.2e-05  
         C11       1.0000    0.92177   0.69658   0.32096   Biso      1.000     C          -0.177453           
         C12       1.0000    0.06409   0.63606   0.28258   Biso      1.000     C          -0.020368           
         C13       1.0000    0.19288   0.63262   0.31062   Biso      1.000     C          -0.23463699999999998          
         C14       1.0000    0.17648   0.69261   0.37623   Biso      1.000     C          0.380815  
         C15       1.0000    0.13091   0.62377   0.69261   Biso      1.000     C          0.381473  
         C16       1.0000    0.03287   0.75308   0.41528   Biso      1.000     C          -0.253316           
         C17       1.0000    0.86316   0.42265   0.79355   Biso      1.000     C          0.6245539999999999  
         C18       1.0000    0.34422   0.11270   0.74558   Biso      1.000     C          -0.000923           
         C19       1.0000    0.93931   0.30342   0.67904   Biso      1.000     C          -0.176555           
         C20       1.0000    0.98273   0.36394   0.71742   Biso      1.000     C          -0.020644           
         C21       1.0000    0.13612   0.36738   0.68938   Biso      1.000     C          -0.23358600000000002          
         C22       1.0000    0.24532   0.30739   0.62377   Biso      1.000     C          0.380772  
         C23       1.0000    0.20123   0.24692   0.58472   Biso      1.000     C          -0.25547600000000004          
         C24       1.0000    0.82207   0.42596   0.17950   Biso      1.000     C          0.596514  
         C25       1.0000    0.71419   0.20645   0.42265   Biso      1.000     C          0.623165  
         C26       1.0000    0.54308   0.25442   0.11270   Biso      1.000     C          -0.002707           
         C27       1.0000    0.75727   0.32096   0.30342   Biso      1.000     C          -0.177875           
         C28       1.0000    0.65333   0.28258   0.36394   Biso      1.000     C          -0.018807           
         C29       1.0000    0.49650   0.31062   0.36738   Biso      1.000     C          -0.236303           
         C30       1.0000    0.99843   0.17950   0.57404   Biso      1.000     C          0.59701   
         C31       1.0000    0.25157   0.92596   0.32050   Biso      1.000     C          0.597024  
         C32       1.0000    0.38684   0.70645   0.07735   Biso      1.000     C          0.624556  
         C33       1.0000    0.90578   0.75442   0.38730   Biso      1.000     C          -0.0009130000000000001        
         C34       1.0000    0.69815   0.25308   0.08472   Biso      1.000     C          -0.25268  
         C35       1.0000    0.80271   0.19261   0.12377   Biso      1.000     C          0.38167   
         C36       1.0000    0.75350   0.13262   0.18938   Biso      1.000     C          -0.23628600000000002          
         C37       1.0000    0.59667   0.13606   0.21742   Biso      1.000     C          -0.018828           
         C38       1.0000    0.49273   0.19658   0.17904   Biso      1.000     C          -0.177886           
         C39       1.0000    0.70692   0.38730   0.24558   Biso      1.000     C          -0.00267  
         C40       1.0000    0.53581   0.07735   0.29355   Biso      1.000     C          0.623164  
         C41       1.0000    0.42793   0.32050   0.07404   Biso      1.000     C          0.596533  
         C42       1.0000    0.03595   0.74692   0.91528   Biso      1.000     C          -0.254842           
         C43       1.0000    0.11909   0.80739   0.87623   Biso      1.000     C          0.381511  
         C44       1.0000    0.07550   0.86738   0.81062   Biso      1.000     C          -0.233881           
         C45       1.0000    0.95015   0.86394   0.78258   Biso      1.000     C          -0.019212           
         C46       1.0000    0.86835   0.80342   0.82096   Biso      1.000     C          -0.178804           
         C47       1.0000    0.33980   0.61270   0.75442   Biso      1.000     C          -0.000302           
         C48       1.0000    0.90671   0.92265   0.70645   Biso      1.000     C          0.624356  
         C49       1.0000    0.82247   0.67950   0.92596   Biso      1.000     C          0.596758  
         C50       1.0000    0.21713   0.08472   0.74692   Biso      1.000     C          -0.253289           
         C51       1.0000    0.07352   0.12377   0.80739   Biso      1.000     C          0.380798  
         C52       1.0000    0.05712   0.18938   0.86738   Biso      1.000     C          -0.23462600000000003          
         C53       1.0000    0.18591   0.21742   0.86394   Biso      1.000     C          -0.020354           
         C54       1.0000    0.32823   0.17904   0.80342   Biso      1.000     C          -0.177476           
         C55       1.0000    0.04750   0.24558   0.61270   Biso      1.000     C          -3.9e-05  
         C56       1.0000    0.17064   0.29355   0.92265   Biso      1.000     C          0.624028  
         C57       1.0000    0.49803   0.07404   0.67950   Biso      1.000     C          0.596282  
         C58       1.0000    0.04877   0.91528   0.25308   Biso      1.000     C          -0.25547600000000004          
         C59       1.0000    0.00468   0.87623   0.19261   Biso      1.000     C          0.380765  
         C60       1.0000    0.11388   0.81062   0.13262   Biso      1.000     C          -0.23358299999999999          
         C61       1.0000    0.26727   0.78258   0.13606   Biso      1.000     C          -0.020647           
         C62       1.0000    0.31069   0.82096   0.19658   Biso      1.000     C          -0.17655  
         C63       1.0000    0.44729   0.37623   0.30739   Biso      1.000     C          0.381714  
         C64       1.0000    0.55185   0.41528   0.24692   Biso      1.000     C          -0.252722           
         Ca1       1.0000    0.62500   0.85810   0.64190   Biso      1.000     Ca          1.527696  
         Ca2       1.0000    0.12500   0.14190   0.35810   Biso      1.000     Ca          1.527462  
         Ca3       1.0000    0.73310   0.64190   0.14190   Biso      1.000     Ca          1.5284389999999999  
         Ca4       1.0000    0.51690   0.35810   0.85810   Biso      1.000     Ca          1.528441  
         H1        1.0000    0.23650   0.44700   0.27500   Biso      1.000     H          0.37852399999999997           
         H2        1.0000    0.46540   0.69790   0.69850   Biso      1.000     H          0.10368   
         H3        1.0000    0.95850   0.55300   0.72500   Biso      1.000     H          0.37850300000000003           
         H4        1.0000    0.51810   0.45960   0.20780   Biso      1.000     H          0.139716  
         H5        1.0000    0.42560   0.28600   0.40900   Biso      1.000     H          0.137427  
         H6        1.0000    0.86180   0.30210   0.30150   Biso      1.000     H          0.10355299999999999           
         H7        1.0000    0.27410   0.20780   0.54040   Biso      1.000     H          0.140953  
         H8        1.0000    0.83670   0.30150   0.69790   Biso      1.000     H          0.102526  
         H9        1.0000    0.18550   0.54040   0.79220   Biso      1.000     H          0.139702  
         H10       1.0000    0.48850   0.27500   0.55300   Biso      1.000     H          0.37804899999999997           
         H11       1.0000    0.02230   0.79220   0.45960   Biso      1.000     H          0.139335  
         H12       1.0000    0.28840   0.59100   0.28600   Biso      1.000     H          0.136569  
         H13       1.0000    0.83610   0.69850   0.30210   Biso      1.000     H          0.103656  
         H14       1.0000    0.31650   0.72500   0.44700   Biso      1.000     H          0.378486  
         H15       1.0000    0.16540   0.40900   0.71400   Biso      1.000     H          0.135634  
         H16       1.0000    0.76150   0.94700   0.22500   Biso      1.000     H          0.378051  
         H17       1.0000    0.12060   0.71400   0.59100   Biso      1.000     H          0.135845  
         H18       1.0000    0.08460   0.78600   0.09100   Biso      1.000     H          0.135634  
         H19       1.0000    0.73190   0.29220   0.04040   Biso      1.000     H          0.139708  
         H20       1.0000    0.82440   0.09100   0.21400   Biso      1.000     H          0.137429  
         H21       1.0000    0.38820   0.19850   0.19790   Biso      1.000     H          0.103572  
         H22       1.0000    0.01350   0.22500   0.05300   Biso      1.000     H          0.37852399999999997           
         H23       1.0000    0.41330   0.80210   0.19850   Biso      1.000     H          0.102528  
         H24       1.0000    0.12940   0.90900   0.78600   Biso      1.000     H          0.135854  
         H25       1.0000    0.78460   0.80150   0.80210   Biso      1.000     H          0.103684  
         H26       1.0000    0.06450   0.70780   0.95960   Biso      1.000     H          0.139704  
         H27       1.0000    0.22770   0.04040   0.70780   Biso      1.000     H          0.13933099999999998           
         H28       1.0000    0.96160   0.21400   0.90900   Biso      1.000     H          0.13656500000000002           
         H29       1.0000    0.41390   0.19790   0.80150   Biso      1.000     H          0.10365899999999999           
         H30       1.0000    0.93350   0.05300   0.77500   Biso      1.000     H          0.378485  
         H31       1.0000    0.97590   0.95960   0.29220   Biso      1.000     H          0.140952  
         H32       1.0000    0.29150   0.77500   0.94700   Biso      1.000     H          0.378512  
         O1        1.0000    0.36084   0.68301   0.01049   Biso      1.000     O          -0.53987  
         O2        1.0000    0.51039   0.66928   0.09838   Biso      1.000     O          -0.701075           
         O3        1.0000    0.27805   0.33072   0.90162   Biso      1.000     O          -0.700645           
         O4        1.0000    0.39029   0.89278   0.32328   Biso      1.000     O          -0.49998100000000006          
         O5        1.0000    0.15402   0.98906   0.37102   Biso      1.000     O          -0.698055           
         O6        1.0000    0.85387   0.89887   0.19127   Biso      1.000     O          -0.5249010000000001           
         O7        1.0000    0.51410   0.01094   0.62898   Biso      1.000     O          -0.697684           
         O8        1.0000    0.60635   0.10722   0.67672   Biso      1.000     O          -0.499716           
         O9        1.0000    0.05434   0.31699   0.98951   Biso      1.000     O          -0.540007           
         O10       1.0000    0.73590   0.87102   0.48906   Biso      1.000     O          -0.697679           
         O11       1.0000    0.85692   0.62898   0.98906   Biso      1.000     O          -0.697754           
         O12       1.0000    0.71693   0.67672   0.89278   Biso      1.000     O          -0.500738           
         O13       1.0000    0.82033   0.90162   0.66928   Biso      1.000     O          -0.701313           
         O14       1.0000    0.95615   0.98951   0.68301   Biso      1.000     O          -0.539107           
         O15       1.0000    0.24726   0.80873   0.89887   Biso      1.000     O          -0.525085           
         O16       1.0000    0.00274   0.60113   0.69127   Biso      1.000     O          -0.5250670000000001           
         O17       1.0000    0.47496   0.37102   0.01094   Biso      1.000     O          -0.697221           
         O18       1.0000    0.28643   0.32328   0.10722   Biso      1.000     O          -0.49960299999999996          
         O19       1.0000    0.39123   0.09838   0.33072   Biso      1.000     O          -0.700707           
         O20       1.0000    0.94401   0.10113   0.80873   Biso      1.000     O          -0.525058           
         O21       1.0000    0.29385   0.81699   0.51049   Biso      1.000     O          -0.539112           
         O22       1.0000    0.95486   0.19127   0.10113   Biso      1.000     O          -0.5259159999999999           
         O23       1.0000    0.53307   0.60722   0.82328   Biso      1.000     O          -0.50073  
         O24       1.0000    0.62867   0.01049   0.31699   Biso      1.000     O          -0.5387770000000001           
         O25       1.0000    0.64365   0.82328   0.39278   Biso      1.000     O          -0.49973100000000004          
         O26       1.0000    0.97195   0.59838   0.16928   Biso      1.000     O          -0.700647           
         O27       1.0000    0.19566   0.51049   0.18301   Biso      1.000     O          -0.540003           
         O28       1.0000    0.30599   0.69127   0.39887   Biso      1.000     O          -0.525065           
         O29       1.0000    0.09598   0.12898   0.51094   Biso      1.000     O          -0.698055           
         O30       1.0000    0.42967   0.83072   0.59838   Biso      1.000     O          -0.701311           
         O31       1.0000    0.73961   0.40162   0.83072   Biso      1.000     O          -0.701068           
         O32       1.0000    0.85971   0.17672   0.60722   Biso      1.000     O          -0.49996999999999997          
         O33       1.0000    0.39613   0.30873   0.60113   Biso      1.000     O          -0.5249020000000001           
         O34       1.0000    0.77504   0.48906   0.12898   Biso      1.000     O          -0.6972149999999999           
         O35       1.0000    0.96357   0.39278   0.17672   Biso      1.000     O          -0.499605           
         O36       1.0000    0.85877   0.16928   0.40162   Biso      1.000     O          -0.700706           
         O37       1.0000    0.62133   0.18301   0.48951   Biso      1.000     O          -0.538776           
         O38       1.0000    0.29514   0.39887   0.30873   Biso      1.000     O          -0.525936           
         O39       1.0000    0.39308   0.51094   0.87102   Biso      1.000     O          -0.697754           
         O40       1.0000    0.88916   0.48951   0.81699   Biso      1.000     O          -0.539879           
         Pb1       1.0000    0.62500   0.55400   0.94600   Biso      1.000     Pb          1.053567  
         Pb2       1.0000    0.42900   0.94600   0.44600   Biso      1.000     Pb          1.052828  
         Pb3       1.0000    0.82100   0.05400   0.55400   Biso      1.000     Pb          1.052826  
         Pb4       1.0000    0.12500   0.44600   0.05400   Biso      1.000     Pb          1.052715 