
##########################################################################
#               Crystallographic Information Format file
#               Produced by PyCifRW module
#
#  This is a CIF file.  CIF has been adopted by the International
#  Union of Crystallography as the standard for data archiving and
#  transmission.
#
#  For information on this file format, follow the CIF links at
#  http://www.iucr.org
##########################################################################

data_image0

_cell_length_a                          9.781
_cell_length_b                          11.905
_cell_length_c                          15.22
_cell_angle_alpha                       96.5
_cell_angle_beta                        99.07
_cell_angle_gamma                       112.41
_symmetry_space_group_name_H-M          'P 1'
_symmetry_int_tables_number             1
loop_
  _symmetry_equiv_pos_as_xyz
         'x, y, z' 
loop_
  _atom_site_label
  _atom_site_occupancy
  _atom_site_fract_x
  _atom_site_fract_y
  _atom_site_fract_z
  _atom_site_thermal_displace_type
  _atom_site_B_iso_or_equiv
  _atom_site_type_symbol
  _atom_site_charge
         C1        1.0000    0.77640   0.47660   0.10960   Biso      1.000     C          0.157793  
         C2        1.0000    0.62100   0.03450   0.16290   Biso      1.000     C          -0.118195           
         C3        1.0000    0.66040   0.15930   0.19390   Biso      1.000     C          -0.024828           
         C4        1.0000    0.71160   0.59590   0.18770   Biso      1.000     C          0.147897  
         C5        1.0000    0.76080   0.51340   0.40780   Biso      1.000     C          0.16521   
         C6        1.0000    0.96850   0.62990   0.49230   Biso      1.000     C          0.173534  
         C7        1.0000    0.28810   0.44780   0.20240   Biso      1.000     C          0.142197  
         C8        1.0000    0.19310   0.57210   0.17120   Biso      1.000     C          0.167836  
         C9        1.0000    0.47800   0.95910   0.11230   Biso      1.000     C          -0.023094           
         C10       1.0000    0.76160   0.21510   0.64590   Biso      1.000     C          0.575955  
         C11       1.0000    0.39500   0.93120   0.59300   Biso      1.000     C          -0.084479           
         C12       1.0000    0.49580   0.05260   0.60780   Biso      1.000     C          -0.088471           
         C13       1.0000    0.65150   0.08430   0.63410   Biso      1.000     C          -0.019967           
         C14       1.0000    0.70110   0.99100   0.64540   Biso      1.000     C          -0.12084  
         C15       1.0000    0.60010   0.86850   0.62810   Biso      1.000     C          -0.043901           
         C16       1.0000    0.56450   0.17540   0.91660   Biso      1.000     C          0.584956  
         C17       1.0000    0.18710   0.76100   0.74790   Biso      1.000     C          0.584015  
         C18       1.0000    0.44580   0.83790   0.60150   Biso      1.000     C          -0.093422           
         C19       1.0000    0.44490   0.79130   0.82690   Biso      1.000     C          -0.112319           
         C20       1.0000    0.37380   0.01030   0.09130   Biso      1.000     C          -0.081061           
         C21       1.0000    0.55510   0.20870   0.17310   Biso      1.000     C          -0.112316           
         C22       1.0000    0.22360   0.52340   0.89040   Biso      1.000     C          0.157793  
         C23       1.0000    0.28840   0.40410   0.81230   Biso      1.000     C          0.147897  
         C24       1.0000    0.23920   0.48660   0.59220   Biso      1.000     C          0.16521   
         C25       1.0000    0.03150   0.37010   0.50770   Biso      1.000     C          0.173534  
         C26       1.0000    0.71190   0.55220   0.79760   Biso      1.000     C          0.142197  
         C27       1.0000    0.80690   0.42790   0.82880   Biso      1.000     C          0.167836  
         C28       1.0000    0.23840   0.78490   0.35410   Biso      1.000     C          0.575955  
         C29       1.0000    0.41310   0.13420   0.12020   Biso      1.000     C          -0.090426           
         C30       1.0000    0.34250   0.23050   0.36310   Biso      1.000     C          0.606616  
         C31       1.0000    0.60500   0.06880   0.40700   Biso      1.000     C          -0.084479           
         C32       1.0000    0.50420   0.94740   0.39220   Biso      1.000     C          -0.088471           
         C33       1.0000    0.34850   0.91570   0.36590   Biso      1.000     C          -0.019967           
         C34       1.0000    0.29890   0.00900   0.35460   Biso      1.000     C          -0.12084  
         C35       1.0000    0.39990   0.13150   0.37190   Biso      1.000     C          -0.043901           
         C36       1.0000    0.43550   0.82460   0.08340   Biso      1.000     C          0.584956  
         C37       1.0000    0.81290   0.23900   0.25210   Biso      1.000     C          0.584016  
         C38       1.0000    0.55420   0.16210   0.39850   Biso      1.000     C          -0.093422           
         C39       1.0000    0.58690   0.86580   0.87980   Biso      1.000     C          -0.090433           
         C40       1.0000    0.65750   0.76950   0.63690   Biso      1.000     C          0.606616  
         C41       1.0000    0.52200   0.04090   0.88770   Biso      1.000     C          -0.023096           
         C42       1.0000    0.37900   0.96550   0.83710   Biso      1.000     C          -0.118194           
         C43       1.0000    0.33960   0.84070   0.80610   Biso      1.000     C          -0.024825           
         C44       1.0000    0.62620   0.98970   0.90870   Biso      1.000     C          -0.081053           
         H1        1.0000    0.70850   0.65040   0.23540   Biso      1.000     H          0.112864  
         H2        1.0000    0.68740   0.46190   0.35740   Biso      1.000     H          0.100409  
         H3        1.0000    0.07140   0.67840   0.51400   Biso      1.000     H          0.118973  
         H4        1.0000    0.34800   0.40300   0.20370   Biso      1.000     H          0.102989  
         H5        1.0000    0.17250   0.63310   0.14620   Biso      1.000     H          0.113457  
         H6        1.0000    0.37700   0.75560   0.58950   Biso      1.000     H          0.104844  
         H7        1.0000    0.46050   0.11390   0.60030   Biso      1.000     H          0.111903  
         H8        1.0000    0.82850   0.43050   0.09110   Biso      1.000     H          0.112591  
         H9        1.0000    0.80400   0.01140   0.66510   Biso      1.000     H          0.127706  
         H10       1.0000    0.65630   0.83180   0.89580   Biso      1.000     H          0.106439  
         H11       1.0000    0.72310   0.03960   0.94250   Biso      1.000     H          0.118126  
         H12       1.0000    0.30800   0.99870   0.82360   Biso      1.000     H          0.126796  
         H13       1.0000    0.29150   0.91110   0.57720   Biso      1.000     H          0.107371  
         H14       1.0000    0.69200   0.00130   0.17640   Biso      1.000     H          0.126796  
         H15       1.0000    0.42030   0.70810   0.80550   Biso      1.000     H          0.10084   
         H16       1.0000    0.92860   0.32160   0.48600   Biso      1.000     H          0.118973  
         H17       1.0000    0.34370   0.16820   0.10420   Biso      1.000     H          0.106438  
         H18       1.0000    0.57970   0.29190   0.19450   Biso      1.000     H          0.10084   
         H19       1.0000    0.19600   0.98860   0.33490   Biso      1.000     H          0.127706  
         H20       1.0000    0.53950   0.88610   0.39970   Biso      1.000     H          0.111903  
         H21       1.0000    0.70850   0.08890   0.42280   Biso      1.000     H          0.107371  
         H22       1.0000    0.62300   0.24440   0.41050   Biso      1.000     H          0.104844  
         H23       1.0000    0.82750   0.36690   0.85380   Biso      1.000     H          0.113458  
         H24       1.0000    0.65200   0.59700   0.79630   Biso      1.000     H          0.102989  
         H25       1.0000    0.27690   0.96040   0.05750   Biso      1.000     H          0.118126  
         H26       1.0000    0.31260   0.53810   0.64260   Biso      1.000     H          0.100409  
         H27       1.0000    0.29150   0.34960   0.76460   Biso      1.000     H          0.112864  
         H28       1.0000    0.17150   0.56950   0.90890   Biso      1.000     H          0.112591  
         N1        1.0000    0.86680   0.61470   0.54180   Biso      1.000     N          -0.177633           
         N2        1.0000    0.72990   0.53910   0.48570   Biso      1.000     N          -0.215294           
         N3        1.0000    0.90750   0.56770   0.40720   Biso      1.000     N          -0.280961           
         N4        1.0000    0.18340   0.43210   0.24970   Biso      1.000     N          -0.183728           
         N5        1.0000    0.65500   0.47770   0.05820   Biso      1.000     N          -0.18321  
         N6        1.0000    0.61210   0.55570   0.10840   Biso      1.000     N          -0.188539           
         N7        1.0000    0.81660   0.56790   0.75030   Biso      1.000     N          -0.183727           
         N8        1.0000    0.81610   0.54920   0.19110   Biso      1.000     N          -0.282131           
         N9        1.0000    0.29990   0.53470   0.15210   Biso      1.000     N          -0.301405           
         N10       1.0000    0.34500   0.52230   0.94180   Biso      1.000     N          -0.183211           
         N11       1.0000    0.13320   0.38530   0.45820   Biso      1.000     N          -0.177633           
         N12       1.0000    0.27010   0.46090   0.51430   Biso      1.000     N          -0.215294           
         N13       1.0000    0.09250   0.43230   0.59280   Biso      1.000     N          -0.280961           
         N14       1.0000    0.18390   0.45080   0.80890   Biso      1.000     N          -0.282131           
         N15       1.0000    0.87880   0.48610   0.77150   Biso      1.000     N          -0.171033           
         N16       1.0000    0.38790   0.44430   0.89160   Biso      1.000     N          -0.188538           
         N17       1.0000    0.12120   0.51390   0.22850   Biso      1.000     N          -0.171033           
         N18       1.0000    0.70010   0.46530   0.84790   Biso      1.000     N          -0.301404           
         O1        1.0000    0.89300   0.24490   0.69580   Biso      1.000     O          -0.584339           
         O2        1.0000    0.72760   0.29040   0.60790   Biso      1.000     O          -0.598831           
         O3        1.0000    0.42910   0.34180   0.38520   Biso      1.000     O          -0.621576           
         O4        1.0000    0.30590   0.75460   0.04260   Biso      1.000     O          -0.57984  
         O5        1.0000    0.53690   0.78410   0.10570   Biso      1.000     O          -0.55878  
         O6        1.0000    0.90600   0.18800   0.26960   Biso      1.000     O          -0.535648           
         O7        1.0000    0.84620   0.34880   0.28180   Biso      1.000     O          -0.608109           
         O8        1.0000    0.79850   0.80700   0.66870   Biso      1.000     O          -0.502968           
         O9        1.0000    0.20150   0.19300   0.33130   Biso      1.000     O          -0.502969           
         O10       1.0000    0.57090   0.65820   0.61480   Biso      1.000     O          -0.621576           
         O11       1.0000    0.27240   0.70960   0.39210   Biso      1.000     O          -0.598831           
         O12       1.0000    0.46310   0.21590   0.89430   Biso      1.000     O          -0.558779           
         O13       1.0000    0.09400   0.81200   0.73040   Biso      1.000     O          -0.535648           
         O14       1.0000    0.15380   0.65120   0.71820   Biso      1.000     O          -0.608109           
         O15       1.0000    0.10700   0.75510   0.30420   Biso      1.000     O          -0.584339           
         O16       1.0000    0.69410   0.24540   0.95740   Biso      1.000     O          -0.57984  
         Zn1       1.0000    0.50000   0.50000   0.50000   Biso      1.000     Zn          0.919486  
         Zn2       1.0000    0.56087   0.39516   0.92954   Biso      1.000     Zn          0.667091  
         Zn3       1.0000    0.10931   0.31173   0.32978   Biso      1.000     Zn          0.734651  
         Zn4       1.0000    0.01127   0.42971   0.70515   Biso      1.000     Zn          0.742222  
         Zn5       1.0000    0.43913   0.60484   0.07046   Biso      1.000     Zn          0.667093  
         Zn6       1.0000    0.89069   0.68827   0.67022   Biso      1.000     Zn          0.734651  
         Zn7       1.0000    0.98873   0.57029   0.29485   Biso      1.000     Zn          0.742222 