
##########################################################################
#               Crystallographic Information Format file
#               Produced by PyCifRW module
#
#  This is a CIF file.  CIF has been adopted by the International
#  Union of Crystallography as the standard for data archiving and
#  transmission.
#
#  For information on this file format, follow the CIF links at
#  http://www.iucr.org
##########################################################################

data_image0

_cell_length_a                          12.8377
_cell_length_b                          12.8377
_cell_length_c                          19.0457
_cell_angle_alpha                       83.7766
_cell_angle_beta                        83.7766
_cell_angle_gamma                       68.7446
_symmetry_space_group_name_H-M          'P 1'
_symmetry_int_tables_number             1
loop_
  _symmetry_equiv_pos_as_xyz
         'x, y, z' 
loop_
  _atom_site_label
  _atom_site_occupancy
  _atom_site_fract_x
  _atom_site_fract_y
  _atom_site_fract_z
  _atom_site_thermal_displace_type
  _atom_site_B_iso_or_equiv
  _atom_site_type_symbol
  _atom_site_charge
         C1        1.0000    0.61928   0.57794   0.39544   Biso      1.000     C          -0.00564  
         C2        1.0000    0.45498   0.75694   0.32840   Biso      1.000     C          -0.036416000000000004         
         C3        1.0000    0.36582   0.85488   0.29470   Biso      1.000     C          0.594957  
         C4        1.0000    0.18971   0.08887   0.83212   Biso      1.000     C          0.165302  
         C5        1.0000    0.09684   0.98184   0.84185   Biso      1.000     C          0.133444  
         C6        1.0000    0.99884   0.28270   0.57532   Biso      1.000     C          0.174371  
         C7        1.0000    0.89898   0.18222   0.59063   Biso      1.000     C          0.147957  
         C8        1.0000    0.47907   0.70449   0.93242   Biso      1.000     C          0.613876  
         C9        1.0000    0.74713   0.56671   0.81824   Biso      1.000     C          -0.12700899999999998          
         C10       1.0000    0.42612   0.67492   0.37099   Biso      1.000     C          -0.097608           
         C11       1.0000    0.65754   0.64956   0.85098   Biso      1.000     C          -0.049056           
         C12       1.0000    0.58685   0.50725   0.90428   Biso      1.000     C          -0.11661500000000001          
         C13       1.0000    0.67492   0.42612   0.87099   Biso      1.000     C          -0.097605           
         C14       1.0000    0.75694   0.45498   0.82840   Biso      1.000     C          -0.036417000000000005         
         C15       1.0000    0.85488   0.36582   0.79470   Biso      1.000     C          0.594957  
         C16       1.0000    0.91113   0.81029   0.66788   Biso      1.000     C          0.165302  
         C17       1.0000    0.01816   0.90316   0.65815   Biso      1.000     C          0.133444  
         C18       1.0000    0.71730   0.00116   0.92468   Biso      1.000     C          0.174372  
         C19       1.0000    0.81778   0.10102   0.90937   Biso      1.000     C          0.147956  
         C20       1.0000    0.57794   0.61928   0.89544   Biso      1.000     C          -0.005639           
         C21       1.0000    0.50725   0.58685   0.40428   Biso      1.000     C          -0.11661099999999999          
         C22       1.0000    0.64956   0.65754   0.35098   Biso      1.000     C          -0.049055           
         C23       1.0000    0.56671   0.74713   0.31824   Biso      1.000     C          -0.12700999999999998          
         C24       1.0000    0.81029   0.91113   0.16788   Biso      1.000     C          0.165301  
         C25       1.0000    0.90316   0.01816   0.15815   Biso      1.000     C          0.133446  
         C26       1.0000    0.00116   0.71730   0.42468   Biso      1.000     C          0.174371  
         C27       1.0000    0.10102   0.81778   0.40937   Biso      1.000     C          0.147957  
         C28       1.0000    0.34641   0.23147   0.16002   Biso      1.000     C          0.597386  
         C29       1.0000    0.52093   0.29551   0.06758   Biso      1.000     C          0.613876  
         C30       1.0000    0.25287   0.43329   0.18176   Biso      1.000     C          -0.12700899999999998          
         C31       1.0000    0.34246   0.35044   0.14902   Biso      1.000     C          -0.049056           
         C32       1.0000    0.42206   0.38072   0.10456   Biso      1.000     C          -0.005639           
         C33       1.0000    0.41315   0.49275   0.09572   Biso      1.000     C          -0.11661600000000001          
         C34       1.0000    0.32508   0.57388   0.12901   Biso      1.000     C          -0.097605           
         C35       1.0000    0.24306   0.54502   0.17160   Biso      1.000     C          -0.036417000000000005         
         C36       1.0000    0.14512   0.63418   0.20530   Biso      1.000     C          0.594957  
         C37       1.0000    0.08887   0.18971   0.33212   Biso      1.000     C          0.165301  
         C38       1.0000    0.98184   0.09684   0.34185   Biso      1.000     C          0.133446  
         C39       1.0000    0.28270   0.99884   0.07532   Biso      1.000     C          0.174371  
         C40       1.0000    0.18222   0.89898   0.09063   Biso      1.000     C          0.147957  
         C41       1.0000    0.76853   0.65359   0.33998   Biso      1.000     C          0.597386  
         C42       1.0000    0.70449   0.47907   0.43242   Biso      1.000     C          0.613876  
         C43       1.0000    0.23147   0.34641   0.66002   Biso      1.000     C          0.597386  
         C44       1.0000    0.29551   0.52093   0.56758   Biso      1.000     C          0.613876  
         C45       1.0000    0.65359   0.76853   0.83998   Biso      1.000     C          0.597386  
         C46       1.0000    0.35044   0.34246   0.64902   Biso      1.000     C          -0.049055           
         C47       1.0000    0.38072   0.42206   0.60456   Biso      1.000     C          -0.005639           
         C48       1.0000    0.49275   0.41315   0.59572   Biso      1.000     C          -0.11661600000000001          
         C49       1.0000    0.57388   0.32508   0.62901   Biso      1.000     C          -0.097605           
         C50       1.0000    0.54502   0.24306   0.67160   Biso      1.000     C          -0.036416000000000004         
         C51       1.0000    0.63418   0.14512   0.70530   Biso      1.000     C          0.594957  
         C52       1.0000    0.43329   0.25287   0.68176   Biso      1.000     C          -0.12700999999999998          
         H1        1.0000    0.03590   0.32990   0.55470   Biso      1.000     H          0.121523  
         H2        1.0000    0.85220   0.14460   0.58260   Biso      1.000     H          0.107224  
         H3        1.0000    0.80100   0.58660   0.78920   Biso      1.000     H          0.12136400000000001           
         H4        1.0000    0.53280   0.48700   0.93300   Biso      1.000     H          0.12386099999999998           
         H5        1.0000    0.67970   0.35170   0.87700   Biso      1.000     H          0.11406300000000001           
         H6        1.0000    0.41340   0.19900   0.71080   Biso      1.000     H          0.12136400000000001           
         H7        1.0000    0.07780   0.92740   0.64420   Biso      1.000     H          0.10878499999999999           
         H8        1.0000    0.85540   0.14780   0.91740   Biso      1.000     H          0.107224  
         H9        1.0000    0.07260   0.92220   0.85580   Biso      1.000     H          0.10878499999999999           
         H10       1.0000    0.51300   0.46720   0.56700   Biso      1.000     H          0.12386099999999998           
         H11       1.0000    0.64830   0.32030   0.62300   Biso      1.000     H          0.11406300000000001           
         H12       1.0000    0.88050   0.75650   0.66240   Biso      1.000     H          0.12393499999999999           
         H13       1.0000    0.24350   0.11950   0.83760   Biso      1.000     H          0.12393499999999999           
         H14       1.0000    0.67010   0.96410   0.94530   Biso      1.000     H          0.121523  
         H15       1.0000    0.48700   0.53280   0.43300   Biso      1.000     H          0.12385999999999998           
         H16       1.0000    0.35170   0.67970   0.37700   Biso      1.000     H          0.11406300000000001           
         H17       1.0000    0.75650   0.88050   0.16240   Biso      1.000     H          0.12393499999999999           
         H18       1.0000    0.92740   0.07780   0.14420   Biso      1.000     H          0.10878499999999999           
         H19       1.0000    0.14780   0.85540   0.41740   Biso      1.000     H          0.107224  
         H20       1.0000    0.19900   0.41340   0.21080   Biso      1.000     H          0.12136400000000001           
         H21       1.0000    0.46720   0.51300   0.06700   Biso      1.000     H          0.12386099999999998           
         H22       1.0000    0.32030   0.64830   0.12300   Biso      1.000     H          0.11406300000000001           
         H23       1.0000    0.96410   0.67010   0.44530   Biso      1.000     H          0.121523  
         H24       1.0000    0.92220   0.07260   0.35580   Biso      1.000     H          0.10878499999999999           
         H25       1.0000    0.32990   0.03590   0.05470   Biso      1.000     H          0.121523  
         H26       1.0000    0.14460   0.85220   0.08260   Biso      1.000     H          0.107224  
         H27       1.0000    0.11950   0.24350   0.33760   Biso      1.000     H          0.12393499999999999           
         H28       1.0000    0.58660   0.80100   0.28920   Biso      1.000     H          0.12136400000000001           
         N1        1.0000    0.24535   0.93551   0.04001   Biso      1.000     N          -0.339958           
         N2        1.0000    0.00676   0.81402   0.63287   Biso      1.000     N          -0.330074           
         N3        1.0000    0.93648   0.17942   0.65276   Biso      1.000     N          -0.1733   
         N4        1.0000    0.00213   0.24477   0.64225   Biso      1.000     N          -0.170922           
         N5        1.0000    0.93551   0.24535   0.54001   Biso      1.000     N          -0.339958           
         N6        1.0000    0.18598   0.99324   0.86713   Biso      1.000     N          -0.330074           
         N7        1.0000    0.10828   0.13414   0.78915   Biso      1.000     N          -0.162467           
         N8        1.0000    0.06421   0.04787   0.29530   Biso      1.000     N          -0.198184           
         N9        1.0000    0.17942   0.93648   0.15276   Biso      1.000     N          -0.1733   
         N10       1.0000    0.86586   0.89172   0.71085   Biso      1.000     N          -0.162467           
         N11       1.0000    0.24477   0.00213   0.14225   Biso      1.000     N          -0.170922           
         N12       1.0000    0.04787   0.06421   0.79530   Biso      1.000     N          -0.198167           
         N13       1.0000    0.93579   0.95213   0.70470   Biso      1.000     N          -0.198167           
         N14       1.0000    0.95213   0.93579   0.20470   Biso      1.000     N          -0.198184           
         N15       1.0000    0.75523   0.99787   0.85775   Biso      1.000     N          -0.17093  
         N16       1.0000    0.82058   0.06352   0.84724   Biso      1.000     N          -0.173293           
         N17       1.0000    0.06352   0.82058   0.34724   Biso      1.000     N          -0.1733   
         N18       1.0000    0.99787   0.75523   0.35775   Biso      1.000     N          -0.170922           
         N19       1.0000    0.06449   0.75465   0.45999   Biso      1.000     N          -0.339958           
         N20       1.0000    0.89172   0.86586   0.21085   Biso      1.000     N          -0.16245  
         N21       1.0000    0.81402   0.00676   0.13287   Biso      1.000     N          -0.330074           
         N22       1.0000    0.13414   0.10828   0.28915   Biso      1.000     N          -0.16245  
         N23       1.0000    0.75465   0.06449   0.95999   Biso      1.000     N          -0.339958           
         N24       1.0000    0.99324   0.18598   0.36713   Biso      1.000     N          -0.330074           
         O1        1.0000    0.70335   0.79279   0.78278   Biso      1.000     O          -0.567576           
         O2        1.0000    0.60733   0.83439   0.88580   Biso      1.000     O          -0.58707  
         O3        1.0000    0.40386   0.76714   0.89359   Biso      1.000     O          -0.566609           
         O4        1.0000    0.47487   0.70671   0.99721   Biso      1.000     O          -0.56457  
         O5        1.0000    0.76714   0.40386   0.39359   Biso      1.000     O          -0.566609           
         O6        1.0000    0.59614   0.23286   0.10641   Biso      1.000     O          -0.566609           
         O7        1.0000    0.05997   0.60699   0.22772   Biso      1.000     O          -0.543164           
         O8        1.0000    0.15154   0.72740   0.20886   Biso      1.000     O          -0.569516           
         O9        1.0000    0.79279   0.70335   0.28278   Biso      1.000     O          -0.567576           
         O10       1.0000    0.83439   0.60733   0.38580   Biso      1.000     O          -0.58707  
         O11       1.0000    0.70671   0.47487   0.49721   Biso      1.000     O          -0.56457  
         O12       1.0000    0.39301   0.94003   0.27228   Biso      1.000     O          -0.543164           
         O13       1.0000    0.27260   0.84846   0.29114   Biso      1.000     O          -0.569516           
         O14       1.0000    0.94003   0.39301   0.77228   Biso      1.000     O          -0.543164           
         O15       1.0000    0.52513   0.29329   0.00279   Biso      1.000     O          -0.56457  
         O16       1.0000    0.84846   0.27260   0.79114   Biso      1.000     O          -0.569515           
         O17       1.0000    0.29665   0.20721   0.21722   Biso      1.000     O          -0.567576           
         O18       1.0000    0.16561   0.39267   0.61420   Biso      1.000     O          -0.58707  
         O19       1.0000    0.29329   0.52513   0.50279   Biso      1.000     O          -0.56457  
         O20       1.0000    0.23286   0.59614   0.60641   Biso      1.000     O          -0.566609           
         O21       1.0000    0.60699   0.05997   0.72772   Biso      1.000     O          -0.543164           
         O22       1.0000    0.72740   0.15154   0.70886   Biso      1.000     O          -0.569515           
         O23       1.0000    0.39267   0.16561   0.11420   Biso      1.000     O          -0.58707  
         O24       1.0000    0.20721   0.29665   0.71722   Biso      1.000     O          -0.567576           
         Zn1       1.0000    0.10791   0.71295   0.56022   Biso      1.000     Zn          0.845413  
         Zn2       1.0000    0.06430   0.27618   0.72557   Biso      1.000     Zn          0.755325  
         Zn3       1.0000    0.28705   0.89209   0.93978   Biso      1.000     Zn          0.845412  
         Zn4       1.0000    0.27618   0.06430   0.22557   Biso      1.000     Zn          0.755323  
         Zn5       1.0000    0.71295   0.10791   0.06022   Biso      1.000     Zn          0.845413  
         Zn6       1.0000    0.93570   0.72382   0.27443   Biso      1.000     Zn          0.755323  
         Zn7       1.0000    0.89308   0.10692   0.75000   Biso      1.000     Zn          0.713896  
         Zn8       1.0000    0.10692   0.89308   0.25000   Biso      1.000     Zn          0.7139    
         Zn9       1.0000    0.89209   0.28705   0.43978   Biso      1.000     Zn          0.845412  
         Zn10      1.0000    0.72382   0.93570   0.77443   Biso      1.000     Zn          0.755326 