
##########################################################################
#               Crystallographic Information Format file
#               Produced by PyCifRW module
#
#  This is a CIF file.  CIF has been adopted by the International
#  Union of Crystallography as the standard for data archiving and
#  transmission.
#
#  For information on this file format, follow the CIF links at
#  http://www.iucr.org
##########################################################################

data_image0

_cell_length_a                          11.4422
_cell_length_b                          13.6499
_cell_length_c                          23.9769
_cell_angle_alpha                       92.915
_cell_angle_beta                        103.671
_cell_angle_gamma                       112.821
_symmetry_space_group_name_H-M          'P 1'
_symmetry_int_tables_number             1
loop_
  _symmetry_equiv_pos_as_xyz
         'x, y, z' 
loop_
  _atom_site_label
  _atom_site_occupancy
  _atom_site_fract_x
  _atom_site_fract_y
  _atom_site_fract_z
  _atom_site_thermal_displace_type
  _atom_site_B_iso_or_equiv
  _atom_site_type_symbol
  _atom_site_charge
         C1        1.0000    0.47900   0.99550   0.29820   Biso      1.000     C          0.033258  
         C2        1.0000    0.62700   0.70170   0.86210   Biso      1.000     C          0.52947   
         C3        1.0000    0.61100   0.75320   0.81080   Biso      1.000     C          0.010498  
         C4        1.0000    0.36800   0.25280   0.76410   Biso      1.000     C          -0.119113           
         C5        1.0000    0.63100   0.72480   0.75990   Biso      1.000     C          -0.099689           
         C6        1.0000    0.24400   0.16690   0.75330   Biso      1.000     C          0.039043  
         C7        1.0000    0.61800   0.77450   0.71320   Biso      1.000     C          -0.118778           
         C8        1.0000    0.57900   0.86100   0.71630   Biso      1.000     C          0.038362  
         C9        1.0000    0.55770   0.93200   0.67610   Biso      1.000     C          0.026898  
         C10       1.0000    0.15200   0.09620   0.70000   Biso      1.000     C          0.025712  
         C11       1.0000    0.56300   0.93240   0.61770   Biso      1.000     C          -0.103183           
         C12       1.0000    0.15700   0.09710   0.64240   Biso      1.000     C          -0.108815           
         C13       1.0000    0.53100   0.00660   0.58840   Biso      1.000     C          -0.098325           
         C14       1.0000    0.49660   0.08120   0.61440   Biso      1.000     C          0.015344  
         C15       1.0000    0.46200   0.16050   0.58140   Biso      1.000     C          0.559024  
         C16       1.0000    0.05350   0.01960   0.59900   Biso      1.000     C          -0.100449           
         C17       1.0000    0.74670   0.81240   0.14670   Biso      1.000     C          -0.169434           
         C18       1.0000    0.80840   0.86700   0.20060   Biso      1.000     C          0.02233   
         C19       1.0000    0.94700   0.94650   0.61210   Biso      1.000     C          0.017324  
         C20       1.0000    0.83110   0.86180   0.56470   Biso      1.000     C          0.56752   
         C21       1.0000    0.93930   0.94540   0.67000   Biso      1.000     C          -0.170471           
         C22       1.0000    0.94800   0.06100   0.19580   Biso      1.000     C          -0.517863           
         C23       1.0000    0.57500   0.84310   0.81530   Biso      1.000     C          -0.169655           
         C24       1.0000    0.43200   0.30560   0.81930   Biso      1.000     C          -0.101983           
         C25       1.0000    0.55640   0.89380   0.76850   Biso      1.000     C          0.025295  
         C26       1.0000    0.51730   0.98610   0.76330   Biso      1.000     C          0.184679  
         C27       1.0000    0.21720   0.52640   0.87130   Biso      1.000     C          0.019833  
         C28       1.0000    0.27900   0.61830   0.84860   Biso      1.000     C          -0.100499           
         C29       1.0000    0.20800   0.64680   0.80310   Biso      1.000     C          -0.127199           
         C30       1.0000    0.07570   0.58150   0.77710   Biso      1.000     C          0.039672  
         C31       1.0000    0.98050   0.58680   0.72720   Biso      1.000     C          0.037271  
         C32       1.0000    0.99100   0.66160   0.68890   Biso      1.000     C          -0.133828           
         C33       1.0000    0.88600   0.64330   0.64150   Biso      1.000     C          -0.09435  
         C34       1.0000    0.76960   0.55070   0.63080   Biso      1.000     C          0.00991   
         C35       1.0000    0.65740   0.52780   0.57880   Biso      1.000     C          0.602832  
         C36       1.0000    0.75720   0.47780   0.66910   Biso      1.000     C          -0.15966  
         C37       1.0000    0.04140   0.02140   0.71160   Biso      1.000     C          0.028527  
         C38       1.0000    0.86190   0.49560   0.71660   Biso      1.000     C          0.040258  
         C39       1.0000    0.49130   0.07910   0.67220   Biso      1.000     C          -0.171365           
         C40       1.0000    0.52100   0.00450   0.70180   Biso      1.000     C          0.033265  
         C41       1.0000    0.77300   0.41600   0.79860   Biso      1.000     C          -0.51641  
         C42       1.0000    0.85300   0.31400   0.73660   Biso      1.000     C          -0.521663           
         C43       1.0000    0.01610   0.48790   0.79930   Biso      1.000     C          0.040845  
         C44       1.0000    0.37300   0.95120   0.76810   Biso      1.000     C          -0.519526           
         C45       1.0000    0.08550   0.46040   0.84640   Biso      1.000     C          -0.165634           
         C46       1.0000    0.45200   0.33620   0.92500   Biso      1.000     C          0.593009  
         C47       1.0000    0.38310   0.28000   0.86440   Biso      1.000     C          0.009177  
         C48       1.0000    0.61100   0.08190   0.80940   Biso      1.000     C          -0.513388           
         C49       1.0000    0.87380   0.42390   0.76300   Biso      1.000     C          0.179931  
         C50       1.0000    0.05670   0.03690   0.77760   Biso      1.000     C          0.190726  
         C51       1.0000    0.94800   0.06800   0.78930   Biso      1.000     C          -0.526256           
         C52       1.0000    0.05200   0.93200   0.21070   Biso      1.000     C          -0.526256           
         C53       1.0000    0.36900   0.27520   0.24010   Biso      1.000     C          -0.099702           
         C54       1.0000    0.38900   0.24680   0.18920   Biso      1.000     C          0.010508  
         C55       1.0000    0.22700   0.58400   0.20140   Biso      1.000     C          -0.51641  
         C56       1.0000    0.12620   0.57610   0.23700   Biso      1.000     C          0.179931  
         C57       1.0000    0.13810   0.50440   0.28340   Biso      1.000     C          0.040256  
         C58       1.0000    0.37300   0.29830   0.13790   Biso      1.000     C          0.52947   
         C59       1.0000    0.24280   0.52220   0.33090   Biso      1.000     C          -0.159663           
         C60       1.0000    0.34260   0.47220   0.42120   Biso      1.000     C          0.602832  
         C61       1.0000    0.23040   0.44930   0.36920   Biso      1.000     C          0.009914  
         C62       1.0000    0.42500   0.15690   0.18470   Biso      1.000     C          -0.169656           
         C63       1.0000    0.38200   0.22550   0.28680   Biso      1.000     C          -0.118776           
         C64       1.0000    0.11400   0.35670   0.35850   Biso      1.000     C          -0.094352           
         C65       1.0000    0.00900   0.33840   0.31110   Biso      1.000     C          -0.133825           
         C66       1.0000    0.01950   0.41320   0.27280   Biso      1.000     C          0.037271  
         C67       1.0000    0.92430   0.41850   0.22290   Biso      1.000     C          0.039671  
         C68       1.0000    0.48270   0.01390   0.23670   Biso      1.000     C          0.18468   
         C69       1.0000    0.79200   0.35320   0.19690   Biso      1.000     C          -0.127202           
         C70       1.0000    0.38900   0.91810   0.19060   Biso      1.000     C          -0.513388           
         C71       1.0000    0.72100   0.38170   0.15140   Biso      1.000     C          -0.100496           
         C72       1.0000    0.78280   0.47360   0.12870   Biso      1.000     C          0.019833  
         C73       1.0000    0.70800   0.50100   0.07630   Biso      1.000     C          0.606092  
         C74       1.0000    0.62700   0.04880   0.23190   Biso      1.000     C          -0.519526           
         C75       1.0000    0.44360   0.10620   0.23150   Biso      1.000     C          0.025296  
         C76       1.0000    0.50870   0.92090   0.32780   Biso      1.000     C          -0.171359           
         C77       1.0000    0.14700   0.68600   0.26340   Biso      1.000     C          -0.521662           
         C78       1.0000    0.44230   0.06800   0.32390   Biso      1.000     C          0.0269    
         C79       1.0000    0.94330   0.96310   0.22240   Biso      1.000     C          0.190726  
         C80       1.0000    0.95860   0.97860   0.28840   Biso      1.000     C          0.028508  
         C81       1.0000    0.05200   0.93900   0.80420   Biso      1.000     C          -0.517863           
         C82       1.0000    0.06070   0.05460   0.33000   Biso      1.000     C          -0.170451           
         C83       1.0000    0.16890   0.13820   0.43530   Biso      1.000     C          0.567522  
         C84       1.0000    0.05300   0.05350   0.38790   Biso      1.000     C          0.017309  
         C85       1.0000    0.19160   0.13300   0.79940   Biso      1.000     C          0.022305  
         C86       1.0000    0.94650   0.98040   0.40100   Biso      1.000     C          -0.100434           
         C87       1.0000    0.25330   0.18760   0.85330   Biso      1.000     C          -0.169406           
         C88       1.0000    0.84300   0.90290   0.35760   Biso      1.000     C          -0.108818           
         C89       1.0000    0.42100   0.13900   0.28370   Biso      1.000     C          0.038361  
         C90       1.0000    0.84800   0.90380   0.30000   Biso      1.000     C          0.025715  
         C91       1.0000    0.53800   0.83950   0.41860   Biso      1.000     C          0.559025  
         C92       1.0000    0.63200   0.74720   0.23590   Biso      1.000     C          -0.119112           
         C93       1.0000    0.50340   0.91880   0.38560   Biso      1.000     C          0.015342  
         C94       1.0000    0.56800   0.69440   0.18070   Biso      1.000     C          -0.101983           
         C95       1.0000    0.61690   0.72000   0.13560   Biso      1.000     C          0.00918   
         C96       1.0000    0.54800   0.66380   0.07500   Biso      1.000     C          0.593007  
         C97       1.0000    0.46900   0.99340   0.41160   Biso      1.000     C          -0.098328           
         C98       1.0000    0.91450   0.53960   0.15360   Biso      1.000     C          -0.165638           
         C99       1.0000    0.98390   0.51210   0.20070   Biso      1.000     C          0.040848  
         C100      1.0000    0.43700   0.06760   0.38230   Biso      1.000     C          -0.10318  
         C101      1.0000    0.75600   0.83310   0.24670   Biso      1.000     C          0.039041  
         C102      1.0000    0.29200   0.49900   0.92370   Biso      1.000     C          0.606091  
         Eu1       1.0000    0.37634   0.29865   0.51752   Biso      1.000     Eu          1.390342  
         Eu2       1.0000    0.62366   0.70135   0.48248   Biso      1.000     Eu          1.390342  
         Eu3       1.0000    0.64560   0.59734   0.96192   Biso      1.000     Eu          1.380956  
         Eu4       1.0000    0.35440   0.40266   0.03808   Biso      1.000     Eu          1.380955  
         H1        1.0000    0.65560   0.99230   0.24060   Biso      1.000     H          0.155905  
         H2        1.0000    0.48520   0.63760   0.17390   Biso      1.000     H          0.120629  
         H3        1.0000    0.59400   0.72670   0.26610   Biso      1.000     H          0.122927  
         H4        1.0000    0.21510   0.16780   0.88340   Biso      1.000     H          0.133111  
         H5        1.0000    0.77220   0.85120   0.36690   Biso      1.000     H          0.122841  
         H6        1.0000    0.94270   0.98230   0.43930   Biso      1.000     H          0.129496  
         H7        1.0000    0.11680   0.91770   0.79400   Biso      1.000     H          0.150317  
         H8        1.0000    0.96720   0.88050   0.78990   Biso      1.000     H          0.161583  
         H9        1.0000    0.95560   0.60160   0.13880   Biso      1.000     H          0.131007  
         H10       1.0000    0.07370   0.95540   0.84600   Biso      1.000     H          0.165242  
         H11       1.0000    0.96640   0.08870   0.83060   Biso      1.000     H          0.161753  
         H12       1.0000    0.86600   0.00620   0.77560   Biso      1.000     H          0.156486  
         H13       1.0000    0.94370   0.12600   0.76930   Biso      1.000     H          0.157527  
         H14       1.0000    0.05630   0.87400   0.23070   Biso      1.000     H          0.157526  
         H15       1.0000    0.13400   0.99380   0.22440   Biso      1.000     H          0.156486  
         H16       1.0000    0.03360   0.91130   0.16940   Biso      1.000     H          0.161753  
         H17       1.0000    0.86730   0.89470   0.67920   Biso      1.000     H          0.126023  
         H18       1.0000    0.13270   0.10530   0.32080   Biso      1.000     H          0.126021  
         H19       1.0000    0.68490   0.11330   0.25890   Biso      1.000     H          0.154708  
         H20       1.0000    0.46780   0.99300   0.45030   Biso      1.000     H          0.121829  
         H21       1.0000    0.92630   0.04460   0.15400   Biso      1.000     H          0.165242  
         H22       1.0000    0.30410   0.89370   0.19750   Biso      1.000     H          0.157965  
         H23       1.0000    0.42010   0.86180   0.19390   Biso      1.000     H          0.160575  
         H24       1.0000    0.38350   0.93700   0.15210   Biso      1.000     H          0.167554  
         H25       1.0000    0.63170   0.33930   0.13550   Biso      1.000     H          0.122613  
         H26       1.0000    0.75060   0.28970   0.21060   Biso      1.000     H          0.110811  
         H27       1.0000    0.93200   0.27630   0.30440   Biso      1.000     H          0.118086  
         H28       1.0000    0.43550   0.13340   0.14980   Biso      1.000     H          0.129464  
         H29       1.0000    0.08730   0.67870   0.28670   Biso      1.000     H          0.164936  
         H30       1.0000    0.10700   0.30660   0.38380   Biso      1.000     H          0.117771  
         H31       1.0000    0.21950   0.51400   0.18630   Biso      1.000     H          0.167253  
         H32       1.0000    0.34530   0.33270   0.24290   Biso      1.000     H          0.118717  
         H33       1.0000    0.31440   0.62370   0.22670   Biso      1.000     H          0.161737  
         H34       1.0000    0.36520   0.24730   0.32030   Biso      1.000     H          0.130212  
         H35       1.0000    0.21160   0.62150   0.16950   Biso      1.000     H          0.163989  
         H36       1.0000    0.13070   0.72560   0.23260   Biso      1.000     H          0.156801  
         H37       1.0000    0.23590   0.72370   0.28760   Biso      1.000     H          0.163225  
         H38       1.0000    0.32140   0.58300   0.33720   Biso      1.000     H          0.132704  
         H39       1.0000    0.41260   0.11580   0.40030   Biso      1.000     H          0.131927  
         H40       1.0000    0.03280   0.11950   0.21010   Biso      1.000     H          0.161583  
         H41       1.0000    0.05730   0.01770   0.56070   Biso      1.000     H          0.129497  
         H42       1.0000    0.53220   0.87220   0.30980   Biso      1.000     H          0.118733  
         H43       1.0000    0.36830   0.66070   0.86450   Biso      1.000     H          0.122613  
         H44       1.0000    0.24940   0.71030   0.78940   Biso      1.000     H          0.110811  
         H45       1.0000    0.06800   0.72370   0.69560   Biso      1.000     H          0.118086  
         H46       1.0000    0.62830   0.06160   0.19270   Biso      1.000     H          0.160889  
         H47       1.0000    0.89300   0.69340   0.61620   Biso      1.000     H          0.117771  
         H48       1.0000    0.67860   0.41700   0.66280   Biso      1.000     H          0.132704  
         H49       1.0000    0.46780   0.12780   0.69020   Biso      1.000     H          0.118733  
         H50       1.0000    0.37170   0.93840   0.80730   Biso      1.000     H          0.160889  
         H51       1.0000    0.78050   0.48600   0.81370   Biso      1.000     H          0.167253  
         H52       1.0000    0.88320   0.08230   0.20600   Biso      1.000     H          0.150316  
         H53       1.0000    0.78840   0.37850   0.83050   Biso      1.000     H          0.163989  
         H54       1.0000    0.34440   0.00770   0.75940   Biso      1.000     H          0.155905  
         H55       1.0000    0.86930   0.27440   0.76740   Biso      1.000     H          0.156801  
         H56       1.0000    0.76410   0.27630   0.71240   Biso      1.000     H          0.163225  
         H57       1.0000    0.68560   0.37630   0.77330   Biso      1.000     H          0.161737  
         H58       1.0000    0.31510   0.88670   0.74110   Biso      1.000     H          0.154708  
         H59       1.0000    0.78490   0.83220   0.11660   Biso      1.000     H          0.133114  
         H60       1.0000    0.22780   0.14880   0.63310   Biso      1.000     H          0.12284   
         H61       1.0000    0.53220   0.00700   0.54970   Biso      1.000     H          0.121829  
         H62       1.0000    0.58740   0.88420   0.59970   Biso      1.000     H          0.131927  
         H63       1.0000    0.63480   0.75270   0.67970   Biso      1.000     H          0.130211  
         H64       1.0000    0.91270   0.32130   0.71330   Biso      1.000     H          0.164936  
         H65       1.0000    0.65470   0.66730   0.75710   Biso      1.000     H          0.118716  
         H66       1.0000    0.40600   0.27330   0.73390   Biso      1.000     H          0.122927  
         H67       1.0000    0.51480   0.36240   0.82610   Biso      1.000     H          0.120629  
         H68       1.0000    0.56450   0.86660   0.85020   Biso      1.000     H          0.129464  
         H69       1.0000    0.61650   0.06300   0.84790   Biso      1.000     H          0.167553  
         H70       1.0000    0.57990   0.13820   0.80610   Biso      1.000     H          0.160575  
         H71       1.0000    0.04440   0.39840   0.86120   Biso      1.000     H          0.131006  
         H72       1.0000    0.69590   0.10630   0.80250   Biso      1.000     H          0.157965  
         O1        1.0000    0.54300   0.84370   0.47160   Biso      1.000     O          -0.579611           
         O2        1.0000    0.84040   0.85370   0.51420   Biso      1.000     O          -0.586612           
         O3        1.0000    0.73160   0.80390   0.57870   Biso      1.000     O          -0.604868           
         O4        1.0000    0.39360   0.30870   0.96460   Biso      1.000     O          -0.569718           
         O5        1.0000    0.68200   0.57970   0.53690   Biso      1.000     O          -0.594695           
         O6        1.0000    0.54640   0.45620   0.57650   Biso      1.000     O          -0.582145           
         O7        1.0000    0.41680   0.53700   0.93520   Biso      1.000     O          -0.568439           
         O8        1.0000    0.23040   0.43930   0.95350   Biso      1.000     O          -0.581332           
         O9        1.0000    0.56470   0.76960   0.39310   Biso      1.000     O          -0.605516           
         O10       1.0000    0.56450   0.41240   0.93350   Biso      1.000     O          -0.578522           
         O11       1.0000    0.62780   0.74160   0.91200   Biso      1.000     O          -0.548676           
         O12       1.0000    0.63670   0.61080   0.85790   Biso      1.000     O          -0.563821           
         O13       1.0000    0.43530   0.23040   0.60690   Biso      1.000     O          -0.605515           
         O14       1.0000    0.45700   0.15630   0.52840   Biso      1.000     O          -0.579611           
         O15       1.0000    0.15960   0.14630   0.48580   Biso      1.000     O          -0.586613           
         O16       1.0000    0.26840   0.19610   0.42130   Biso      1.000     O          -0.604868           
         O17       1.0000    0.43550   0.58760   0.06650   Biso      1.000     O          -0.578522           
         O18       1.0000    0.60640   0.69130   0.03540   Biso      1.000     O          -0.569716           
         O19       1.0000    0.31800   0.42030   0.46310   Biso      1.000     O          -0.594695           
         O20       1.0000    0.45360   0.54380   0.42350   Biso      1.000     O          -0.582145           
         O21       1.0000    0.58320   0.46300   0.06480   Biso      1.000     O          -0.568442           
         O22       1.0000    0.76960   0.56070   0.04650   Biso      1.000     O          -0.581333           
         O23       1.0000    0.36330   0.38920   0.14210   Biso      1.000     O          -0.563819           
         O24       1.0000    0.37220   0.25840   0.08800   Biso      1.000     O          -0.548675 