
##########################################################################
#               Crystallographic Information Format file
#               Produced by PyCifRW module
#
#  This is a CIF file.  CIF has been adopted by the International
#  Union of Crystallography as the standard for data archiving and
#  transmission.
#
#  For information on this file format, follow the CIF links at
#  http://www.iucr.org
##########################################################################

data_image0

_cell_length_a                          15.2169
_cell_length_b                          15.2169
_cell_length_c                          16.738
_cell_angle_alpha                       90
_cell_angle_beta                        90
_cell_angle_gamma                       120
_symmetry_space_group_name_H-M          'P 1'
_symmetry_int_tables_number             1
loop_
  _symmetry_equiv_pos_as_xyz
         'x, y, z' 
loop_
  _atom_site_label
  _atom_site_occupancy
  _atom_site_fract_x
  _atom_site_fract_y
  _atom_site_fract_z
  _atom_site_thermal_displace_type
  _atom_site_B_iso_or_equiv
  _atom_site_type_symbol
  _atom_site_charge
         Ag1       1.0000    0.24088   0.36695   0.22159   Biso      1.000     Ag          0.472134  
         Ag2       1.0000    0.75912   0.63305   0.77841   Biso      1.000     Ag          0.472134  
         Ag3       1.0000    0.87393   0.24088   0.77841   Biso      1.000     Ag          0.472137  
         Ag4       1.0000    0.36695   0.12607   0.77841   Biso      1.000     Ag          0.472138  
         Ag5       1.0000    0.12607   0.75912   0.22159   Biso      1.000     Ag          0.472137  
         Ag6       1.0000    0.63305   0.87393   0.22159   Biso      1.000     Ag          0.472138  
         C1        1.0000    0.51390   0.65030   0.10420   Biso      1.000     C          -0.127702           
         C2        1.0000    0.56310   0.53580   0.16060   Biso      1.000     C          -0.134381           
         C3        1.0000    0.56770   0.65690   0.03510   Biso      1.000     C          -0.142076           
         C4        1.0000    0.61700   0.60160   0.03140   Biso      1.000     C          0.032532  
         C5        1.0000    0.50990   0.58900   0.16630   Biso      1.000     C          0.017353999999999998          
         C6        1.0000    0.67340   0.60910   0.95880   Biso      1.000     C          0.289966  
         C7        1.0000    0.37400   0.44120   0.43630   Biso      1.000     C          0.036507  
         C8        1.0000    0.35670   0.46310   0.51210   Biso      1.000     C          -0.118124           
         C9        1.0000    0.38090   0.35420   0.42290   Biso      1.000     C          -0.141156           
         C10       1.0000    0.61580   0.54140   0.09300   Biso      1.000     C          -0.14719400000000002          
         C11       1.0000    0.45310   0.58600   0.23860   Biso      1.000     C          0.32668400000000003           
         C12       1.0000    0.43230   0.34310   0.96490   Biso      1.000     C          -0.142077           
         C13       1.0000    0.38190   0.50960   0.37000   Biso      1.000     C          0.331908  
         C14       1.0000    0.34940   0.40240   0.57670   Biso      1.000     C          -0.13348800000000002          
         C15       1.0000    0.74560   0.09690   0.62910   Biso      1.000     C          0.30848600000000004           
         C16       1.0000    0.68090   0.04060   0.56300   Biso      1.000     C          0.041214999999999995          
         C17       1.0000    0.70590   0.08240   0.48640   Biso      1.000     C          -0.11788900000000001          
         C18       1.0000    0.59760   0.94700   0.57670   Biso      1.000     C          -0.133483           
         C19       1.0000    0.64580   0.02670   0.42290   Biso      1.000     C          -0.141151           
         C20       1.0000    0.53690   0.89360   0.51210   Biso      1.000     C          -0.118123           
         C21       1.0000    0.55880   0.93280   0.43630   Biso      1.000     C          0.036509  
         C22       1.0000    0.39090   0.06430   0.95880   Biso      1.000     C          0.28996500000000003           
         C23       1.0000    0.42410   0.50810   0.29700   Biso      1.000     C          -0.49465299999999995          
         C24       1.0000    0.37650   0.29410   0.48640   Biso      1.000     C          -0.11788699999999999          
         C25       1.0000    0.43690   0.46420   0.83940   Biso      1.000     C          -0.13438  
         C26       1.0000    0.35130   0.25440   0.62910   Biso      1.000     C          0.308485  
         C27       1.0000    0.86710   0.45310   0.76140   Biso      1.000     C          0.326669  
         C28       1.0000    0.92090   0.50990   0.83370   Biso      1.000     C          0.017353  
         C29       1.0000    0.86360   0.51390   0.89580   Biso      1.000     C          -0.127701           
         C30       1.0000    0.02730   0.56310   0.83940   Biso      1.000     C          -0.134379           
         C31       1.0000    0.91080   0.56770   0.96490   Biso      1.000     C          -0.142076           
         C32       1.0000    0.07440   0.61580   0.90700   Biso      1.000     C          -0.147199           
         C33       1.0000    0.01540   0.61700   0.96860   Biso      1.000     C          0.032539  
         C34       1.0000    0.06430   0.67340   0.04120   Biso      1.000     C          0.289964  
         C35       1.0000    0.93280   0.37400   0.56370   Biso      1.000     C          0.036507  
         C36       1.0000    0.38420   0.45860   0.90700   Biso      1.000     C          -0.1472   
         C37       1.0000    0.38300   0.39840   0.96860   Biso      1.000     C          0.032537  
         C38       1.0000    0.32660   0.39090   0.04120   Biso      1.000     C          0.28996500000000003           
         C39       1.0000    0.62600   0.55880   0.56370   Biso      1.000     C          0.036507  
         C40       1.0000    0.64330   0.53690   0.48790   Biso      1.000     C          -0.118124           
         C41       1.0000    0.61910   0.64580   0.57710   Biso      1.000     C          -0.141156           
         C42       1.0000    0.65060   0.59760   0.42330   Biso      1.000     C          -0.133487           
         C43       1.0000    0.62350   0.70590   0.51360   Biso      1.000     C          -0.11788699999999999          
         C44       1.0000    0.64030   0.68090   0.43700   Biso      1.000     C          0.041216  
         C45       1.0000    0.64870   0.74560   0.37090   Biso      1.000     C          0.308485  
         C46       1.0000    0.89360   0.35670   0.48790   Biso      1.000     C          -0.118122           
         C47       1.0000    0.39840   0.01540   0.03140   Biso      1.000     C          0.032532  
         C48       1.0000    0.35970   0.31910   0.56300   Biso      1.000     C          0.041216  
         C49       1.0000    0.45860   0.07440   0.09300   Biso      1.000     C          -0.147204           
         C50       1.0000    0.46420   0.02730   0.16060   Biso      1.000     C          -0.134371           
         C51       1.0000    0.91600   0.42410   0.70300   Biso      1.000     C          -0.49465600000000004          
         C52       1.0000    0.50960   0.12770   0.63000   Biso      1.000     C          0.331928  
         C53       1.0000    0.50810   0.08400   0.70300   Biso      1.000     C          -0.494654           
         C54       1.0000    0.58600   0.13290   0.76140   Biso      1.000     C          0.32669899999999996           
         C55       1.0000    0.58900   0.07910   0.83370   Biso      1.000     C          0.017351  
         C56       1.0000    0.65030   0.13640   0.89580   Biso      1.000     C          -0.127698           
         C57       1.0000    0.53580   0.97270   0.83940   Biso      1.000     C          -0.134379           
         C58       1.0000    0.65690   0.08920   0.96490   Biso      1.000     C          -0.142078           
         C59       1.0000    0.54140   0.92560   0.90700   Biso      1.000     C          -0.1472   
         C60       1.0000    0.60160   0.98460   0.96860   Biso      1.000     C          0.032539  
         C61       1.0000    0.60910   0.93570   0.04120   Biso      1.000     C          0.289964  
         C62       1.0000    0.09690   0.35130   0.37090   Biso      1.000     C          0.30848600000000004           
         C63       1.0000    0.44120   0.06720   0.56370   Biso      1.000     C          0.036507  
         C64       1.0000    0.35420   0.97330   0.57710   Biso      1.000     C          -0.141154           
         C65       1.0000    0.40240   0.05300   0.42330   Biso      1.000     C          -0.133487           
         C66       1.0000    0.29410   0.91760   0.51360   Biso      1.000     C          -0.11788699999999999          
         C67       1.0000    0.31910   0.95940   0.43700   Biso      1.000     C          0.041218  
         C68       1.0000    0.25440   0.90310   0.37090   Biso      1.000     C          0.30848600000000004           
         C69       1.0000    0.61810   0.49040   0.63000   Biso      1.000     C          0.331908  
         C70       1.0000    0.57590   0.49190   0.70300   Biso      1.000     C          -0.49465200000000004          
         C71       1.0000    0.54690   0.41400   0.76140   Biso      1.000     C          0.32668400000000003           
         C72       1.0000    0.49010   0.41100   0.83370   Biso      1.000     C          0.017352  
         C73       1.0000    0.48610   0.34970   0.89580   Biso      1.000     C          -0.127699           
         C74       1.0000    0.46310   0.10640   0.48790   Biso      1.000     C          -0.118119           
         C75       1.0000    0.04060   0.35970   0.43700   Biso      1.000     C          0.041213  
         C76       1.0000    0.08240   0.37650   0.51360   Biso      1.000     C          -0.117888           
         C77       1.0000    0.94700   0.34940   0.42330   Biso      1.000     C          -0.133483           
         C78       1.0000    0.34970   0.86360   0.10420   Biso      1.000     C          -0.1277   
         C79       1.0000    0.41100   0.92090   0.16630   Biso      1.000     C          0.017352  
         C80       1.0000    0.41400   0.86710   0.23860   Biso      1.000     C          0.32669899999999996           
         C81       1.0000    0.49190   0.91600   0.29700   Biso      1.000     C          -0.49465699999999996          
         C82       1.0000    0.49040   0.87230   0.37000   Biso      1.000     C          0.33193   
         C83       1.0000    0.90310   0.64870   0.62910   Biso      1.000     C          0.30848600000000004           
         C84       1.0000    0.95940   0.64030   0.56300   Biso      1.000     C          0.041213  
         C85       1.0000    0.91760   0.62350   0.48640   Biso      1.000     C          -0.117888           
         C86       1.0000    0.05300   0.65060   0.57670   Biso      1.000     C          -0.133482           
         C87       1.0000    0.97330   0.61910   0.42290   Biso      1.000     C          -0.141152           
         C88       1.0000    0.10640   0.64330   0.51210   Biso      1.000     C          -0.118125           
         C89       1.0000    0.06720   0.62600   0.43630   Biso      1.000     C          0.03651   
         C90       1.0000    0.93570   0.32660   0.95880   Biso      1.000     C          0.28996500000000003           
         C91       1.0000    0.98460   0.38300   0.03140   Biso      1.000     C          0.032531  
         C92       1.0000    0.92560   0.38420   0.09300   Biso      1.000     C          -0.147202           
         C93       1.0000    0.08920   0.43230   0.03510   Biso      1.000     C          -0.142073           
         C94       1.0000    0.97270   0.43690   0.16060   Biso      1.000     C          -0.134371           
         C95       1.0000    0.13640   0.48610   0.10420   Biso      1.000     C          -0.127703           
         C96       1.0000    0.07910   0.49010   0.16630   Biso      1.000     C          0.017353999999999998          
         C97       1.0000    0.13290   0.54690   0.23860   Biso      1.000     C          0.326669  
         C98       1.0000    0.08400   0.57590   0.29700   Biso      1.000     C          -0.49465699999999996          
         C99       1.0000    0.12770   0.61810   0.37000   Biso      1.000     C          0.33192   
         C100      1.0000    0.02670   0.38090   0.57710   Biso      1.000     C          -0.141152           
         C101      1.0000    0.34310   0.91080   0.03510   Biso      1.000     C          -0.142074           
         C102      1.0000    0.87230   0.38190   0.63000   Biso      1.000     C          0.33192   
         Fe1       1.0000    0.33333   0.66666   0.31740   Biso      1.000     Fe          0.8610110000000001  
         Fe2       1.0000    0.66667   0.33334   0.68260   Biso      1.000     Fe          0.861016  
         H1        1.0000    0.49640   0.93390   0.79670   Biso      1.000     H          0.11354500000000001           
         H2        1.0000    0.38850   0.33670   0.37110   Biso      1.000     H          0.112427  
         H3        1.0000    0.34990   0.51980   0.52050   Biso      1.000     H          0.12343900000000001           
         H4        1.0000    0.65010   0.50540   0.08880   Biso      1.000     H          0.119024  
         H5        1.0000    0.57050   0.69760   0.99260   Biso      1.000     H          0.11909700000000001           
         H6        1.0000    0.56250   0.49640   0.20330   Biso      1.000     H          0.11354500000000001           
         H7        1.0000    0.48060   0.68730   0.10850   Biso      1.000     H          0.12388699999999998           
         H8        1.0000    0.43380   0.45370   0.28560   Biso      1.000     H          0.120253  
         H9        1.0000    0.76200   0.14650   0.47830   Biso      1.000     H          0.116953  
         H10       1.0000    0.58210   0.91980   0.62790   Biso      1.000     H          0.120511  
         H11       1.0000    0.66330   0.05180   0.37110   Biso      1.000     H          0.112428  
         H12       1.0000    0.48020   0.83010   0.52050   Biso      1.000     H          0.12344100000000001           
         H13       1.0000    0.49460   0.14470   0.08880   Biso      1.000     H          0.119025  
         H14       1.0000    0.30240   0.87290   0.99260   Biso      1.000     H          0.11909600000000001           
         H15       1.0000    0.31270   0.79330   0.10850   Biso      1.000     H          0.12388699999999998           
         H16       1.0000    0.54630   0.98010   0.28560   Biso      1.000     H          0.120251  
         H17       1.0000    0.85350   0.61550   0.47830   Biso      1.000     H          0.116953  
         H18       1.0000    0.08020   0.66230   0.62790   Biso      1.000     H          0.120511  
         H19       1.0000    0.94820   0.61150   0.37110   Biso      1.000     H          0.112428  
         H20       1.0000    0.16990   0.65010   0.52050   Biso      1.000     H          0.12344000000000001           
         H21       1.0000    0.85530   0.34990   0.08880   Biso      1.000     H          0.11902599999999999           
         H22       1.0000    0.12710   0.42950   0.99260   Biso      1.000     H          0.11909700000000001           
         H23       1.0000    0.93390   0.43750   0.20330   Biso      1.000     H          0.11354500000000001           
         H24       1.0000    0.20670   0.51940   0.10850   Biso      1.000     H          0.12388699999999998           
         H25       1.0000    0.01990   0.56620   0.28560   Biso      1.000     H          0.120253  
         H26       1.0000    0.50360   0.06610   0.20330   Biso      1.000     H          0.113544  
         H27       1.0000    0.33770   0.41790   0.62790   Biso      1.000     H          0.120511  
         H28       1.0000    0.38450   0.23800   0.47830   Biso      1.000     H          0.116953  
         H29       1.0000    0.61150   0.66330   0.62890   Biso      1.000     H          0.112427  
         H30       1.0000    0.51980   0.16990   0.47950   Biso      1.000     H          0.12344000000000001           
         H31       1.0000    0.33670   0.94820   0.62890   Biso      1.000     H          0.112428  
         H32       1.0000    0.41790   0.08020   0.37210   Biso      1.000     H          0.120512  
         H33       1.0000    0.23800   0.85350   0.52170   Biso      1.000     H          0.116953  
         H34       1.0000    0.56620   0.54630   0.71440   Biso      1.000     H          0.120253  
         H35       1.0000    0.51940   0.31270   0.89150   Biso      1.000     H          0.12388699999999998           
         H36       1.0000    0.43750   0.50360   0.79670   Biso      1.000     H          0.11354500000000001           
         H37       1.0000    0.42950   0.30240   0.00740   Biso      1.000     H          0.11909700000000001           
         H38       1.0000    0.34990   0.49460   0.91120   Biso      1.000     H          0.119025  
         H39       1.0000    0.65010   0.48020   0.47950   Biso      1.000     H          0.12343900000000001           
         H40       1.0000    0.68730   0.20670   0.89150   Biso      1.000     H          0.12388699999999998           
         H41       1.0000    0.66230   0.58210   0.37210   Biso      1.000     H          0.120511  
         H42       1.0000    0.61550   0.76200   0.52170   Biso      1.000     H          0.116953  
         H43       1.0000    0.45370   0.01990   0.71440   Biso      1.000     H          0.120251  
         H44       1.0000    0.14650   0.38450   0.52170   Biso      1.000     H          0.116953  
         H45       1.0000    0.91980   0.33770   0.37210   Biso      1.000     H          0.120511  
         H46       1.0000    0.05180   0.38850   0.62890   Biso      1.000     H          0.112428  
         H47       1.0000    0.83010   0.34990   0.47950   Biso      1.000     H          0.12344000000000001           
         H48       1.0000    0.14470   0.65010   0.91120   Biso      1.000     H          0.119025  
         H49       1.0000    0.87290   0.57050   0.00740   Biso      1.000     H          0.11909700000000001           
         H50       1.0000    0.06610   0.56250   0.79670   Biso      1.000     H          0.11354500000000001           
         H51       1.0000    0.79330   0.48060   0.89150   Biso      1.000     H          0.12388699999999998           
         H52       1.0000    0.98010   0.43380   0.71440   Biso      1.000     H          0.120253  
         H53       1.0000    0.50540   0.85530   0.91120   Biso      1.000     H          0.119025  
         H54       1.0000    0.69760   0.12710   0.00740   Biso      1.000     H          0.11909700000000001           
         N1        1.0000    0.14290   0.34780   0.31780   Biso      1.000     N          -0.387148           
         N2        1.0000    0.10240   0.71540   0.09840   Biso      1.000     N          -0.402116           
         N3        1.0000    0.61300   0.89760   0.09840   Biso      1.000     N          -0.402117           
         N4        1.0000    0.28460   0.38700   0.09840   Biso      1.000     N          -0.402117           
         N5        1.0000    0.20490   0.85710   0.31780   Biso      1.000     N          -0.38714699999999996          
         N6        1.0000    0.71540   0.61300   0.90160   Biso      1.000     N          -0.402118           
         N7        1.0000    0.34780   0.20490   0.68220   Biso      1.000     N          -0.387148           
         N8        1.0000    0.38700   0.10240   0.90160   Biso      1.000     N          -0.402118           
         N9        1.0000    0.79510   0.14290   0.68220   Biso      1.000     N          -0.38714699999999996          
         N10       1.0000    0.89760   0.28460   0.90160   Biso      1.000     N          -0.402116           
         N11       1.0000    0.85710   0.65220   0.68220   Biso      1.000     N          -0.38714899999999997          
         N12       1.0000    0.65220   0.79510   0.31780   Biso      1.000     N          -0.387148           
         O1        1.0000    0.77950   0.34990   0.61320   Biso      1.000     O          -0.428192           
         O2        1.0000    0.77560   0.43300   0.75470   Biso      1.000     O          -0.43878900000000004          
         O3        1.0000    0.65740   0.22440   0.75470   Biso      1.000     O          -0.438863           
         O4        1.0000    0.57040   0.22050   0.61320   Biso      1.000     O          -0.428213           
         O5        1.0000    0.43300   0.65740   0.24530   Biso      1.000     O          -0.43883900000000003          
         O6        1.0000    0.34990   0.57040   0.38680   Biso      1.000     O          -0.42816800000000005          
         O7        1.0000    0.34260   0.77560   0.24530   Biso      1.000     O          -0.438862           
         O8        1.0000    0.42960   0.77950   0.38680   Biso      1.000     O          -0.428212           
         O9        1.0000    0.22440   0.56700   0.24530   Biso      1.000     O          -0.438788           
         O10       1.0000    0.22050   0.65010   0.38680   Biso      1.000     O          -0.428191           
         O11       1.0000    0.65010   0.42960   0.61320   Biso      1.000     O          -0.42816899999999997          
         O12       1.0000    0.56700   0.34260   0.75470   Biso      1.000     O          -0.43883900000000003 