
##########################################################################
#               Crystallographic Information Format file
#               Produced by PyCifRW module
#
#  This is a CIF file.  CIF has been adopted by the International
#  Union of Crystallography as the standard for data archiving and
#  transmission.
#
#  For information on this file format, follow the CIF links at
#  http://www.iucr.org
##########################################################################

data_image0

_cell_length_a                          9.0718
_cell_length_b                          9.0718
_cell_length_c                          16.891
_cell_angle_alpha                       90
_cell_angle_beta                        90
_cell_angle_gamma                       120
_symmetry_space_group_name_H-M          'P 1'
_symmetry_int_tables_number             1
loop_
  _symmetry_equiv_pos_as_xyz
         'x, y, z' 
loop_
  _atom_site_label
  _atom_site_occupancy
  _atom_site_fract_x
  _atom_site_fract_y
  _atom_site_fract_z
  _atom_site_thermal_displace_type
  _atom_site_B_iso_or_equiv
  _atom_site_type_symbol
  _atom_site_charge
         C1        1.0000    0.24190   0.53000   0.87307   Biso      1.000     C          -0.057249           
         C2        1.0000    0.45700   0.64320   0.99907   Biso      1.000     C          0.059378  
         C3        1.0000    0.38740   0.47580   0.97537   Biso      1.000     C          -0.10949600000000001          
         C4        1.0000    0.27550   0.41910   0.91127   Biso      1.000     C          -0.043586           
         C5        1.0000    0.12940   0.47710   0.80047   Biso      1.000     C          0.561175  
         C6        1.0000    0.30140   0.62050   0.56693   Biso      1.000     C          0.06650199999999999           
         C7        1.0000    0.35680   0.81380   0.66573   Biso      1.000     C          0.059722000000000004          
         C8        1.0000    0.31910   0.69860   0.90027   Biso      1.000     C          0.066235  
         C9        1.0000    0.52420   0.91160   0.64203   Biso      1.000     C          -0.10956600000000001          
         C10       1.0000    0.28810   0.75810   0.20640   Biso      1.000     C          -0.05735  
         C11       1.0000    0.14360   0.72450   0.24460   Biso      1.000     C          -0.043591000000000005         
         C12       1.0000    0.08840   0.61260   0.30870   Biso      1.000     C          -0.109546           
         C13       1.0000    0.18620   0.54300   0.33240   Biso      1.000     C          0.059559  
         C14       1.0000    0.37950   0.68090   0.23360   Biso      1.000     C          0.066332  
         C15       1.0000    0.52290   0.65230   0.46713   Biso      1.000     C          0.561284  
         C16       1.0000    0.34770   0.87060   0.13380   Biso      1.000     C          0.561244  
         C17       1.0000    0.47710   0.12940   0.86620   Biso      1.000     C          0.561244  
         C18       1.0000    0.53000   0.24190   0.79360   Biso      1.000     C          -0.057348           
         C19       1.0000    0.41910   0.27550   0.75540   Biso      1.000     C          -0.043588           
         C20       1.0000    0.62050   0.30140   0.09973   Biso      1.000     C          0.066232  
         C21       1.0000    0.81380   0.35680   0.00093   Biso      1.000     C          0.059380999999999996          
         C22       1.0000    0.91160   0.52420   0.02463   Biso      1.000     C          -0.109503           
         C23       1.0000    0.85640   0.58090   0.08873   Biso      1.000     C          -0.043605           
         C24       1.0000    0.71190   0.47000   0.12693   Biso      1.000     C          -0.057228999999999995         
         C25       1.0000    0.65230   0.52290   0.19953   Biso      1.000     C          0.561176  
         C26       1.0000    0.68090   0.37950   0.43307   Biso      1.000     C          0.066499  
         C27       1.0000    0.54300   0.18620   0.33427   Biso      1.000     C          0.059723000000000005          
         C28       1.0000    0.61260   0.08840   0.35797   Biso      1.000     C          -0.10955699999999999          
         C29       1.0000    0.72450   0.14360   0.42207   Biso      1.000     C          -0.043505           
         C30       1.0000    0.75810   0.28810   0.46027   Biso      1.000     C          -0.057475           
         C31       1.0000    0.87060   0.34770   0.53287   Biso      1.000     C          0.561284  
         C32       1.0000    0.69860   0.31910   0.76640   Biso      1.000     C          0.066336  
         C33       1.0000    0.64320   0.45700   0.66760   Biso      1.000     C          0.059552999999999995          
         C34       1.0000    0.47580   0.38740   0.69130   Biso      1.000     C          -0.109542           
         C35       1.0000    0.47000   0.71190   0.53973   Biso      1.000     C          -0.057490999999999993         
         C36       1.0000    0.58090   0.85640   0.57793   Biso      1.000     C          -0.043483999999999995         
         Cu1       1.0000    0.54223   0.00000   0.00000   Biso      1.000     Cu          0.752019  
         Cu2       1.0000    0.45777   0.45777   0.33333   Biso      1.000     Cu          0.752051  
         Cu3       1.0000    0.00000   0.54223   0.66667   Biso      1.000     Cu          0.752031  
         H1        1.0000    0.84930   0.31930   0.95763   Biso      1.000     H          0.099062  
         H2        1.0000    0.08170   0.77540   0.22820   Biso      1.000     H          0.131418  
         H3        1.0000    0.98790   0.58560   0.33500   Biso      1.000     H          0.129602  
         H4        1.0000    0.52130   0.22560   0.12623   Biso      1.000     H          0.1036    
         H5        1.0000    0.47870   0.70430   0.20710   Biso      1.000     H          0.10356900000000001           
         H6        1.0000    0.69370   0.91830   0.56153   Biso      1.000     H          0.131405  
         H7        1.0000    0.59770   0.01210   0.66833   Biso      1.000     H          0.129547  
         H8        1.0000    0.31930   0.84930   0.70903   Biso      1.000     H          0.09885   
         H9        1.0000    0.22560   0.52130   0.54043   Biso      1.000     H          0.103493  
         H10       1.0000    0.22460   0.30630   0.89487   Biso      1.000     H          0.131396  
         H11       1.0000    0.41440   0.40230   0.00167   Biso      1.000     H          0.129601  
         H12       1.0000    0.15070   0.47000   0.37570   Biso      1.000     H          0.09889400000000001           
         H13       1.0000    0.29570   0.77440   0.87377   Biso      1.000     H          0.103601  
         H14       1.0000    0.30630   0.22460   0.77180   Biso      1.000     H          0.13142   
         H15       1.0000    0.40230   0.41440   0.66500   Biso      1.000     H          0.129606  
         H16       1.0000    0.68070   0.53000   0.62430   Biso      1.000     H          0.09889500000000001           
         H17       1.0000    0.77440   0.29570   0.79290   Biso      1.000     H          0.10356900000000001           
         H18       1.0000    0.77540   0.08170   0.43847   Biso      1.000     H          0.131413  
         H19       1.0000    0.58560   0.98790   0.33167   Biso      1.000     H          0.12954300000000002           
         H20       1.0000    0.47000   0.15070   0.29097   Biso      1.000     H          0.098846  
         H21       1.0000    0.70430   0.47870   0.45957   Biso      1.000     H          0.103495  
         H22       1.0000    0.91830   0.69370   0.10513   Biso      1.000     H          0.131389  
         H23       1.0000    0.01210   0.59770   0.99833   Biso      1.000     H          0.1296    
         H24       1.0000    0.53000   0.68070   0.04237   Biso      1.000     H          0.099057  
         N1        1.0000    0.66860   0.24520   0.03833   Biso      1.000     N          -0.20640799999999998          
         N2        1.0000    0.57660   0.33140   0.37167   Biso      1.000     N          -0.206581           
         N3        1.0000    0.75480   0.42340   0.70500   Biso      1.000     N          -0.2064   
         N4        1.0000    0.42340   0.75480   0.96167   Biso      1.000     N          -0.206406           
         N5        1.0000    0.33140   0.57660   0.29500   Biso      1.000     N          -0.206406           
         N6        1.0000    0.24520   0.66860   0.62833   Biso      1.000     N          -0.20657899999999998          
         O1        1.0000    0.75260   0.66260   0.23083   Biso      1.000     O          -0.5581659999999999           
         O2        1.0000    0.24740   0.91000   0.10250   Biso      1.000     O          -0.558196           
         O3        1.0000    0.49250   0.91220   0.10880   Biso      1.000     O          -0.551535           
         O4        1.0000    0.66260   0.75260   0.43583   Biso      1.000     O          -0.5581520000000001           
         O5        1.0000    0.41970   0.50750   0.44213   Biso      1.000     O          -0.551585           
         O6        1.0000    0.09000   0.33740   0.76917   Biso      1.000     O          -0.55818  
         O7        1.0000    0.08780   0.58030   0.77547   Biso      1.000     O          -0.551528           
         O8        1.0000    0.33740   0.09000   0.89750   Biso      1.000     O          -0.558203           
         O9        1.0000    0.58030   0.08780   0.89120   Biso      1.000     O          -0.5515359999999999           
         O10       1.0000    0.91000   0.24740   0.56417   Biso      1.000     O          -0.5581470000000001           
         O11       1.0000    0.91220   0.49250   0.55787   Biso      1.000     O          -0.551584           
         O12       1.0000    0.50750   0.41970   0.22453   Biso      1.000     O          -0.551527 