
##########################################################################
#               Crystallographic Information Format file
#               Produced by PyCifRW module
#
#  This is a CIF file.  CIF has been adopted by the International
#  Union of Crystallography as the standard for data archiving and
#  transmission.
#
#  For information on this file format, follow the CIF links at
#  http://www.iucr.org
##########################################################################

data_image0

_cell_length_a                          9.8196
_cell_length_b                          10.3421
_cell_length_c                          11.0133
_cell_angle_alpha                       77.278
_cell_angle_beta                        76.398
_cell_angle_gamma                       65.793
_symmetry_space_group_name_H-M          'P 1'
_symmetry_int_tables_number             1
loop_
  _symmetry_equiv_pos_as_xyz
         'x, y, z' 
loop_
  _atom_site_label
  _atom_site_occupancy
  _atom_site_fract_x
  _atom_site_fract_y
  _atom_site_fract_z
  _atom_site_thermal_displace_type
  _atom_site_B_iso_or_equiv
  _atom_site_type_symbol
  _atom_site_charge
         C1        1.0000    0.47190   0.11210   0.56420   Biso      1.000     C          -0.111863           
         C2        1.0000    0.35580   0.06600   0.56720   Biso      1.000     C          -0.012541           
         C3        1.0000    0.38550   0.95290   0.50230   Biso      1.000     C          -0.105218           
         C4        1.0000    0.20390   0.13260   0.64600   Biso      1.000     C          0.586967  
         C5        1.0000    0.35050   0.01340   0.01780   Biso      1.000     C          -0.041211           
         C6        1.0000    0.41050   0.08420   0.90890   Biso      1.000     C          -0.103367           
         C7        1.0000    0.44080   0.92930   0.10840   Biso      1.000     C          -0.088055           
         C8        1.0000    0.19110   0.02300   0.03330   Biso      1.000     C          0.667054  
         C9        1.0000    0.39240   0.55150   0.41940   Biso      1.000     C          -0.011526           
         C10       1.0000    0.53940   0.55020   0.37470   Biso      1.000     C          -0.112721           
         C11       1.0000    0.35500   0.50010   0.54580   Biso      1.000     C          -0.094949           
         C12       1.0000    0.27720   0.61060   0.33340   Biso      1.000     C          0.586817  
         C13       1.0000    0.64420   0.93400   0.43280   Biso      1.000     C          -0.012542           
         C14       1.0000    0.61450   0.04710   0.49770   Biso      1.000     C          -0.105216           
         C15       1.0000    0.52810   0.88790   0.43580   Biso      1.000     C          -0.111861           
         C16       1.0000    0.79610   0.86740   0.35400   Biso      1.000     C          0.586967  
         C17       1.0000    0.72280   0.38940   0.66660   Biso      1.000     C          0.586817  
         C18       1.0000    0.46060   0.44980   0.62530   Biso      1.000     C          -0.112721           
         C19       1.0000    0.64500   0.49990   0.45420   Biso      1.000     C          -0.094949           
         C20       1.0000    0.80890   0.97700   0.96670   Biso      1.000     C          0.667054  
         C21       1.0000    0.55920   0.07070   0.89160   Biso      1.000     C          -0.088054           
         C22       1.0000    0.58950   0.91580   0.09110   Biso      1.000     C          -0.103364           
         C23       1.0000    0.64950   0.98660   0.98220   Biso      1.000     C          -0.041208           
         C24       1.0000    0.60760   0.44850   0.58060   Biso      1.000     C          -0.011525           
         H1        1.0000    0.64970   0.85970   0.15160   Biso      1.000     H          0.115253  
         H2        1.0000    0.59930   0.11780   0.81930   Biso      1.000     H          0.123633  
         H3        1.0000    0.43450   0.41630   0.70950   Biso      1.000     H          0.118142  
         H4        1.0000    0.74170   0.50010   0.42350   Biso      1.000     H          0.127341  
         H5        1.0000    0.30910   0.92120   0.50390   Biso      1.000     H          0.125681  
         H6        1.0000    0.45310   0.18700   0.60740   Biso      1.000     H          0.110497  
         H7        1.0000    0.35030   0.14030   0.84840   Biso      1.000     H          0.115253  
         H8        1.0000    0.56550   0.58370   0.29050   Biso      1.000     H          0.118142  
         H9        1.0000    0.25830   0.49990   0.57650   Biso      1.000     H          0.127341  
         H10       1.0000    0.69090   0.07880   0.49610   Biso      1.000     H          0.125681  
         H11       1.0000    0.54690   0.81300   0.39260   Biso      1.000     H          0.110497  
         H12       1.0000    0.40070   0.88220   0.18070   Biso      1.000     H          0.123634  
         O1        1.0000    0.14150   0.62490   0.37510   Biso      1.000     O          -0.595441           
         O2        1.0000    0.11530   0.06470   0.67750   Biso      1.000     O          -0.589517           
         O3        1.0000    0.31590   0.65020   0.21790   Biso      1.000     O          -0.656388           
         O4        1.0000    0.11570   0.10030   0.94800   Biso      1.000     O          -0.667256           
         O5        1.0000    0.14210   0.95360   0.12960   Biso      1.000     O          -0.600293           
         O6        1.0000    0.16990   0.24970   0.68400   Biso      1.000     O          -0.601487           
         O7        1.0000    0.88470   0.93530   0.32250   Biso      1.000     O          -0.589517           
         O8        1.0000    0.85850   0.37510   0.62490   Biso      1.000     O          -0.595441           
         O9        1.0000    0.88430   0.89970   0.05200   Biso      1.000     O          -0.667256           
         O10       1.0000    0.85790   0.04640   0.87040   Biso      1.000     O          -0.600293           
         O11       1.0000    0.83010   0.75030   0.31600   Biso      1.000     O          -0.601487           
         O12       1.0000    0.68410   0.34980   0.78210   Biso      1.000     O          -0.656388           
         Y1        1.0000    0.05613   0.77233   0.17594   Biso      1.000     Y          1.830443  
         Y2        1.0000    0.94387   0.22767   0.82406   Biso      1.000     Y          1.830443 