
##########################################################################
#               Crystallographic Information Format file
#               Produced by PyCifRW module
#
#  This is a CIF file.  CIF has been adopted by the International
#  Union of Crystallography as the standard for data archiving and
#  transmission.
#
#  For information on this file format, follow the CIF links at
#  http://www.iucr.org
##########################################################################

data_image0

_cell_length_a                          9.6292
_cell_length_b                          11.1006
_cell_length_c                          16.0263
_cell_angle_alpha                       91.066
_cell_angle_beta                        90
_cell_angle_gamma                       90
_symmetry_space_group_name_H-M          'P 1'
_symmetry_int_tables_number             1
loop_
  _symmetry_equiv_pos_as_xyz
         'x, y, z' 
loop_
  _atom_site_label
  _atom_site_occupancy
  _atom_site_fract_x
  _atom_site_fract_y
  _atom_site_fract_z
  _atom_site_thermal_displace_type
  _atom_site_B_iso_or_equiv
  _atom_site_type_symbol
  _atom_site_charge
         C1        1.0000    0.62140   0.43880   0.48070   Biso      1.000     C          -0.109989           
         C2        1.0000    0.14300   0.70160   0.35880   Biso      1.000     C          -0.121774           
         C3        1.0000    0.01580   0.74760   0.38040   Biso      1.000     C          -0.034773           
         C4        1.0000    0.90120   0.71920   0.33160   Biso      1.000     C          -0.093729           
         C5        1.0000    0.91590   0.64910   0.26000   Biso      1.000     C          -0.110466           
         C6        1.0000    0.04520   0.60730   0.23560   Biso      1.000     C          -0.028524           
         C7        1.0000    0.49870   0.23960   0.48110   Biso      1.000     C          0.6427    
         C8        1.0000    0.37600   0.43720   0.50950   Biso      1.000     C          -0.106343           
         C9        1.0000    0.49860   0.37510   0.49060   Biso      1.000     C          -0.028008           
         C10       1.0000    0.49830   0.33490   0.95330   Biso      1.000     C          0.656789  
         C11       1.0000    0.43090   0.04650   0.65200   Biso      1.000     C          0.633717  
         C12       1.0000    0.34090   0.13160   0.78700   Biso      1.000     C          -0.093047           
         C13       1.0000    0.35700   0.20160   0.85880   Biso      1.000     C          -0.121774           
         C14       1.0000    0.48420   0.24760   0.88040   Biso      1.000     C          -0.034773           
         C15       1.0000    0.58410   0.14910   0.76000   Biso      1.000     C          -0.110467           
         C16       1.0000    0.45480   0.10730   0.73560   Biso      1.000     C          -0.028524           
         C17       1.0000    0.15910   0.63160   0.28700   Biso      1.000     C          -0.093047           
         C18       1.0000    0.99870   0.26040   0.01890   Biso      1.000     C          0.6427    
         C19       1.0000    0.06910   0.54650   0.15200   Biso      1.000     C          0.633717  
         C20       1.0000    0.00140   0.87510   0.99060   Biso      1.000     C          -0.028008           
         C21       1.0000    0.50130   0.76040   0.51890   Biso      1.000     C          0.6427    
         C22       1.0000    0.62400   0.56280   0.49050   Biso      1.000     C          -0.10634  
         C23       1.0000    0.37860   0.56120   0.51930   Biso      1.000     C          -0.109987           
         C24       1.0000    0.50140   0.62490   0.50940   Biso      1.000     C          -0.028008           
         C25       1.0000    0.50170   0.66510   0.04670   Biso      1.000     C          0.656789  
         C26       1.0000    0.56910   0.95350   0.34800   Biso      1.000     C          0.633717  
         C27       1.0000    0.65910   0.86840   0.21300   Biso      1.000     C          -0.093047           
         C28       1.0000    0.64300   0.79840   0.14120   Biso      1.000     C          -0.121774           
         C29       1.0000    0.51580   0.75240   0.11960   Biso      1.000     C          -0.034772           
         C30       1.0000    0.40120   0.78080   0.16840   Biso      1.000     C          -0.093729           
         C31       1.0000    0.41590   0.85090   0.24000   Biso      1.000     C          -0.110465           
         C32       1.0000    0.54520   0.89270   0.26440   Biso      1.000     C          -0.028524           
         C33       1.0000    0.00130   0.73960   0.98110   Biso      1.000     C          0.6427    
         C34       1.0000    0.12400   0.93720   0.00950   Biso      1.000     C          -0.106343           
         C35       1.0000    0.87860   0.93880   0.98070   Biso      1.000     C          -0.10999  
         C36       1.0000    0.00170   0.83490   0.45330   Biso      1.000     C          0.656789  
         C37       1.0000    0.87600   0.06280   0.99050   Biso      1.000     C          -0.10634  
         C38       1.0000    0.59880   0.21920   0.83160   Biso      1.000     C          -0.093728           
         C39       1.0000    0.99860   0.12490   0.00940   Biso      1.000     C          -0.028008           
         C40       1.0000    0.99830   0.16510   0.54670   Biso      1.000     C          0.656789  
         C41       1.0000    0.93090   0.45350   0.84800   Biso      1.000     C          0.633717  
         C42       1.0000    0.84090   0.36840   0.71300   Biso      1.000     C          -0.093047           
         C43       1.0000    0.85700   0.29840   0.64120   Biso      1.000     C          -0.121774           
         C44       1.0000    0.98420   0.25240   0.61960   Biso      1.000     C          -0.034772           
         C45       1.0000    0.09880   0.28080   0.66840   Biso      1.000     C          -0.093729           
         C46       1.0000    0.08410   0.35090   0.74000   Biso      1.000     C          -0.110465           
         C47       1.0000    0.95480   0.39270   0.76440   Biso      1.000     C          -0.028524           
         C48       1.0000    0.12140   0.06120   0.01930   Biso      1.000     C          -0.109987           
         H1        1.0000    0.70280   0.39760   0.46740   Biso      1.000     H          0.12434   
         H2        1.0000    0.25400   0.10070   0.77300   Biso      1.000     H          0.122489  
         H3        1.0000    0.28050   0.21760   0.89270   Biso      1.000     H          0.111438  
         H4        1.0000    0.68620   0.24750   0.84720   Biso      1.000     H          0.117272  
         H5        1.0000    0.66180   0.12980   0.72800   Biso      1.000     H          0.106762  
         H6        1.0000    0.18620   0.25250   0.65280   Biso      1.000     H          0.117272  
         H7        1.0000    0.20280   0.10240   0.03260   Biso      1.000     H          0.12434   
         H8        1.0000    0.75400   0.39930   0.72700   Biso      1.000     H          0.122489  
         H9        1.0000    0.78050   0.28240   0.60730   Biso      1.000     H          0.111438  
         H10       1.0000    0.16180   0.37020   0.77200   Biso      1.000     H          0.106762  
         H11       1.0000    0.79310   0.10470   0.98450   Biso      1.000     H          0.121811  
         H12       1.0000    0.83820   0.62980   0.22800   Biso      1.000     H          0.106762  
         H13       1.0000    0.29310   0.39530   0.51550   Biso      1.000     H          0.121811  
         H14       1.0000    0.21950   0.71760   0.39270   Biso      1.000     H          0.111438  
         H15       1.0000    0.24600   0.60070   0.27300   Biso      1.000     H          0.122489  
         H16       1.0000    0.79720   0.89760   0.96740   Biso      1.000     H          0.12434   
         H17       1.0000    0.20690   0.89530   0.01550   Biso      1.000     H          0.121811  
         H18       1.0000    0.33820   0.87020   0.27200   Biso      1.000     H          0.106762  
         H19       1.0000    0.31380   0.75250   0.15280   Biso      1.000     H          0.117272  
         H20       1.0000    0.71950   0.78240   0.10730   Biso      1.000     H          0.111438  
         H21       1.0000    0.74600   0.89930   0.22700   Biso      1.000     H          0.122489  
         H22       1.0000    0.29720   0.60240   0.53260   Biso      1.000     H          0.12434   
         H23       1.0000    0.70690   0.60470   0.48450   Biso      1.000     H          0.121811  
         H24       1.0000    0.81380   0.74750   0.34720   Biso      1.000     H          0.117272  
         O1        1.0000    0.61330   0.18830   0.47790   Biso      1.000     O          -0.617495           
         O2        1.0000    0.18960   0.51250   0.13470   Biso      1.000     O          -0.568421           
         O3        1.0000    0.97030   0.53720   0.10130   Biso      1.000     O          -0.685167           
         O4        1.0000    0.10880   0.86400   0.49250   Biso      1.000     O          -0.63394  
         O5        1.0000    0.88290   0.87340   0.46980   Biso      1.000     O          -0.623526           
         O6        1.0000    0.38060   0.18830   0.47900   Biso      1.000     O          -0.649461           
         O7        1.0000    0.88670   0.68830   0.97790   Biso      1.000     O          -0.617495           
         O8        1.0000    0.38290   0.62660   0.03020   Biso      1.000     O          -0.623526           
         O9        1.0000    0.60880   0.63600   0.00750   Biso      1.000     O          -0.63394  
         O10       1.0000    0.47030   0.96280   0.39870   Biso      1.000     O          -0.685168           
         O11       1.0000    0.68960   0.98750   0.36530   Biso      1.000     O          -0.568421           
         O12       1.0000    0.11940   0.68830   0.97900   Biso      1.000     O          -0.649462           
         O13       1.0000    0.61710   0.37340   0.96980   Biso      1.000     O          -0.623526           
         O14       1.0000    0.38670   0.81170   0.52210   Biso      1.000     O          -0.617495           
         O15       1.0000    0.52970   0.03720   0.60130   Biso      1.000     O          -0.685168           
         O16       1.0000    0.31040   0.01250   0.63470   Biso      1.000     O          -0.568421           
         O17       1.0000    0.11330   0.31170   0.02210   Biso      1.000     O          -0.617495           
         O18       1.0000    0.88060   0.31170   0.02100   Biso      1.000     O          -0.649462           
         O19       1.0000    0.11710   0.12660   0.53020   Biso      1.000     O          -0.623526           
         O20       1.0000    0.89120   0.13600   0.50750   Biso      1.000     O          -0.63394  
         O21       1.0000    0.02970   0.46280   0.89870   Biso      1.000     O          -0.685168           
         O22       1.0000    0.81040   0.48750   0.86530   Biso      1.000     O          -0.568421           
         O23       1.0000    0.61940   0.81170   0.52100   Biso      1.000     O          -0.649462           
         O24       1.0000    0.39120   0.36400   0.99250   Biso      1.000     O          -0.63394  
         Y1        1.0000    0.71058   0.00488   0.50966   Biso      1.000     Y          1.867344  
         Y2        1.0000    0.21058   0.49512   0.99034   Biso      1.000     Y          1.867344  
         Y3        1.0000    0.28942   0.99512   0.49034   Biso      1.000     Y          1.867344  
         Y4        1.0000    0.78942   0.50488   0.00966   Biso      1.000     Y          1.867344 