
##########################################################################
#               Crystallographic Information Format file
#               Produced by PyCifRW module
#
#  This is a CIF file.  CIF has been adopted by the International
#  Union of Crystallography as the standard for data archiving and
#  transmission.
#
#  For information on this file format, follow the CIF links at
#  http://www.iucr.org
##########################################################################

data_image0

_cell_length_a                          10.0149
_cell_length_b                          10.1872
_cell_length_c                          11.8347
_cell_angle_alpha                       67.77
_cell_angle_beta                        72.895
_cell_angle_gamma                       64.328
_symmetry_space_group_name_H-M          'P 1'
_symmetry_int_tables_number             1
loop_
  _symmetry_equiv_pos_as_xyz
         'x, y, z' 
loop_
  _atom_site_label
  _atom_site_occupancy
  _atom_site_fract_x
  _atom_site_fract_y
  _atom_site_fract_z
  _atom_site_thermal_displace_type
  _atom_site_B_iso_or_equiv
  _atom_site_type_symbol
  _atom_site_charge
         C1        1.0000    0.57380   0.06460   0.88930   Biso      1.000     C          -0.094902           
         C2        1.0000    0.64850   0.98040   0.99030   Biso      1.000     C          -0.037785           
         C3        1.0000    0.57510   0.91480   0.10120   Biso      1.000     C          -0.097371           
         C4        1.0000    0.80740   0.96480   0.98110   Biso      1.000     C          0.667205  
         C5        1.0000    0.38600   0.56090   0.42910   Biso      1.000     C          -0.010473           
         C6        1.0000    0.53480   0.50400   0.37830   Biso      1.000     C          -0.10776  
         C7        1.0000    0.35330   0.55510   0.55240   Biso      1.000     C          -0.097246           
         C8        1.0000    0.26360   0.62770   0.35340   Biso      1.000     C          0.598059  
         C9        1.0000    0.64160   0.93570   0.43510   Biso      1.000     C          -0.010212           
         C10       1.0000    0.60720   0.06330   0.47200   Biso      1.000     C          -0.108752           
         C11       1.0000    0.53160   0.87400   0.46350   Biso      1.000     C          -0.116075           
         C12       1.0000    0.78830   0.87350   0.35880   Biso      1.000     C          0.593055  
         C13       1.0000    0.35150   0.01960   0.00970   Biso      1.000     C          -0.037788           
         C14       1.0000    0.42490   0.08520   0.89880   Biso      1.000     C          -0.09736900000000001          
         C15       1.0000    0.42620   0.93540   0.11070   Biso      1.000     C          -0.094898           
         C16       1.0000    0.19260   0.03520   0.01890   Biso      1.000     C          0.6672060000000001  
         C17       1.0000    0.21170   0.12650   0.64120   Biso      1.000     C          0.593055  
         C18       1.0000    0.39280   0.93670   0.52800   Biso      1.000     C          -0.108749           
         C19       1.0000    0.46840   0.12600   0.53650   Biso      1.000     C          -0.116073           
         C20       1.0000    0.73640   0.37230   0.64660   Biso      1.000     C          0.598059  
         C21       1.0000    0.64670   0.44490   0.44760   Biso      1.000     C          -0.09723899999999999          
         C22       1.0000    0.46520   0.49600   0.62170   Biso      1.000     C          -0.10775499999999999          
         C23       1.0000    0.61400   0.43910   0.57090   Biso      1.000     C          -0.010472           
         C24       1.0000    0.35840   0.06430   0.56490   Biso      1.000     C          -0.010212           
         H1        1.0000    0.44060   0.49410   0.70430   Biso      1.000     H          0.118283  
         H2        1.0000    0.74610   0.40810   0.41110   Biso      1.000     H          0.12135699999999999           
         H3        1.0000    0.32100   0.89350   0.54720   Biso      1.000     H          0.120601  
         H4        1.0000    0.44790   0.21010   0.56130   Biso      1.000     H          0.11215599999999999           
         H5        1.0000    0.62490   0.85720   0.16910   Biso      1.000     H          0.120725  
         H6        1.0000    0.62390   0.10770   0.81440   Biso      1.000     H          0.120957  
         H7        1.0000    0.55940   0.50590   0.29570   Biso      1.000     H          0.118283  
         H8        1.0000    0.67900   0.10650   0.45280   Biso      1.000     H          0.120601  
         H9        1.0000    0.55210   0.78990   0.43870   Biso      1.000     H          0.11215599999999999           
         H10       1.0000    0.37510   0.14280   0.83090   Biso      1.000     H          0.120725  
         H11       1.0000    0.37610   0.89230   0.18560   Biso      1.000     H          0.120957  
         H12       1.0000    0.25390   0.59190   0.58890   Biso      1.000     H          0.12135699999999999           
         O1        1.0000    0.86430   0.95740   0.29990   Biso      1.000     O          -0.587354           
         O2        1.0000    0.87110   0.88220   0.07310   Biso      1.000     O          -0.650462           
         O3        1.0000    0.83060   0.74170   0.35060   Biso      1.000     O          -0.6153689999999999           
         O4        1.0000    0.13130   0.69660   0.39430   Biso      1.000     O          -0.584762           
         O5        1.0000    0.29660   0.61380   0.24660   Biso      1.000     O          -0.659513           
         O6        1.0000    0.86620   0.03790   0.88140   Biso      1.000     O          -0.6217699999999999           
         O7        1.0000    0.12890   0.11780   0.92690   Biso      1.000     O          -0.650462           
         O8        1.0000    0.13570   0.04260   0.70010   Biso      1.000     O          -0.587354           
         O9        1.0000    0.86870   0.30340   0.60570   Biso      1.000     O          -0.584762           
         O10       1.0000    0.70340   0.38620   0.75340   Biso      1.000     O          -0.659513           
         O11       1.0000    0.13380   0.96210   0.11860   Biso      1.000     O          -0.6217699999999999           
         O12       1.0000    0.16940   0.25830   0.64940   Biso      1.000     O          -0.6153689999999999           
         Y1        1.0000    0.04713   0.76946   0.19753   Biso      1.000     Y          1.8273970000000002  
         Y2        1.0000    0.95287   0.23054   0.80247   Biso      1.000     Y          1.8273970000000002 