
##########################################################################
#               Crystallographic Information Format file
#               Produced by PyCifRW module
#
#  This is a CIF file.  CIF has been adopted by the International
#  Union of Crystallography as the standard for data archiving and
#  transmission.
#
#  For information on this file format, follow the CIF links at
#  http://www.iucr.org
##########################################################################

data_image0

_cell_length_a                          10.0463
_cell_length_b                          10.4265
_cell_length_c                          12.7385
_cell_angle_alpha                       109.095
_cell_angle_beta                        95.262
_cell_angle_gamma                       118.275
_symmetry_space_group_name_H-M          'P 1'
_symmetry_int_tables_number             1
loop_
  _symmetry_equiv_pos_as_xyz
         'x, y, z' 
loop_
  _atom_site_label
  _atom_site_occupancy
  _atom_site_fract_x
  _atom_site_fract_y
  _atom_site_fract_z
  _atom_site_thermal_displace_type
  _atom_site_B_iso_or_equiv
  _atom_site_type_symbol
  _atom_site_charge
         C1        1.0000    0.91330   0.98990   0.40280   Biso      1.000     C          -0.098606           
         C2        1.0000    0.87750   0.02770   0.50740   Biso      1.000     C          -0.042037           
         C3        1.0000    0.96500   0.03740   0.60440   Biso      1.000     C          -0.09260299999999999          
         C4        1.0000    0.74120   0.05170   0.51380   Biso      1.000     C          0.667187  
         C5        1.0000    0.12000   0.00740   0.07030   Biso      1.000     C          -0.010485           
         C6        1.0000    0.04130   0.07900   0.11850   Biso      1.000     C          -0.10555  
         C7        1.0000    0.07710   0.92800   0.95110   Biso      1.000     C          -0.09858  
         C8        1.0000    0.24920   0.01590   0.14750   Biso      1.000     C          0.598003  
         C9        1.0000    0.49060   0.62710   0.07230   Biso      1.000     C          -0.011163           
         C10       1.0000    0.38370   0.47110   0.05500   Biso      1.000     C          -0.107754           
         C11       1.0000    0.60750   0.65520   0.01680   Biso      1.000     C          -0.111757           
         C12       1.0000    0.48470   0.76620   0.15220   Biso      1.000     C          0.592612  
         C13       1.0000    0.12250   0.97230   0.49260   Biso      1.000     C          -0.042037           
         C14       1.0000    0.03500   0.96260   0.39560   Biso      1.000     C          -0.092601           
         C15       1.0000    0.08670   0.01010   0.59720   Biso      1.000     C          -0.098605           
         C16       1.0000    0.25880   0.94830   0.48620   Biso      1.000     C          0.667187  
         C17       1.0000    0.51530   0.23380   0.84780   Biso      1.000     C          0.592612  
         C18       1.0000    0.61630   0.52890   0.94500   Biso      1.000     C          -0.107754           
         C19       1.0000    0.39250   0.34480   0.98320   Biso      1.000     C          -0.111756           
         C20       1.0000    0.75080   0.98410   0.85250   Biso      1.000     C          0.598002  
         C21       1.0000    0.92290   0.07200   0.04890   Biso      1.000     C          -0.09858099999999999          
         C22       1.0000    0.95870   0.92100   0.88150   Biso      1.000     C          -0.105547           
         C23       1.0000    0.88000   0.99260   0.92970   Biso      1.000     C          -0.010477           
         C24       1.0000    0.50940   0.37290   0.92770   Biso      1.000     C          -0.011162           
         H1        1.0000    0.93130   0.86740   0.80110   Biso      1.000     H          0.11745   
         H2        1.0000    0.87130   0.12130   0.08260   Biso      1.000     H          0.12305   
         H3        1.0000    0.69500   0.54910   0.90810   Biso      1.000     H          0.120081  
         H4        1.0000    0.31970   0.24050   0.97220   Biso      1.000     H          0.109951  
         H5        1.0000    0.94140   0.06230   0.67440   Biso      1.000     H          0.121143  
         H6        1.0000    0.85530   0.98280   0.33760   Biso      1.000     H          0.121898  
         H7        1.0000    0.06870   0.13260   0.19890   Biso      1.000     H          0.11745   
         H8        1.0000    0.30500   0.45090   0.09190   Biso      1.000     H          0.120081  
         H9        1.0000    0.68030   0.75950   0.02780   Biso      1.000     H          0.109951  
         H10       1.0000    0.05860   0.93770   0.32560   Biso      1.000     H          0.121143  
         H11       1.0000    0.14470   0.01720   0.66240   Biso      1.000     H          0.121898  
         H12       1.0000    0.12870   0.87870   0.91740   Biso      1.000     H          0.12305   
         O1        1.0000    0.38440   0.73980   0.20890   Biso      1.000     O          -0.5954079999999999           
         O2        1.0000    0.66300   0.03260   0.42210   Biso      1.000     O          -0.6556960000000001           
         O3        1.0000    0.57860   0.90460   0.16200   Biso      1.000     O          -0.6067130000000001           
         O4        1.0000    0.29980   0.92700   0.10880   Biso      1.000     O          -0.588619           
         O5        1.0000    0.30400   0.11250   0.25330   Biso      1.000     O          -0.661033           
         O6        1.0000    0.71250   0.08500   0.60980   Biso      1.000     O          -0.621348           
         O7        1.0000    0.33700   0.96740   0.57790   Biso      1.000     O          -0.6556960000000001           
         O8        1.0000    0.61560   0.26020   0.79110   Biso      1.000     O          -0.5954079999999999           
         O9        1.0000    0.70020   0.07300   0.89120   Biso      1.000     O          -0.588619           
         O10       1.0000    0.69600   0.88750   0.74670   Biso      1.000     O          -0.661033           
         O11       1.0000    0.28750   0.91500   0.39020   Biso      1.000     O          -0.621348           
         O12       1.0000    0.42140   0.09540   0.83800   Biso      1.000     O          -0.6067130000000001           
         Y1        1.0000    0.47339   0.02190   0.30224   Biso      1.000     Y          1.835971  
         Y2        1.0000    0.52661   0.97810   0.69776   Biso      1.000     Y          1.835971 