
##########################################################################
#               Crystallographic Information Format file
#               Produced by PyCifRW module
#
#  This is a CIF file.  CIF has been adopted by the International
#  Union of Crystallography as the standard for data archiving and
#  transmission.
#
#  For information on this file format, follow the CIF links at
#  http://www.iucr.org
##########################################################################

data_image0

_cell_length_a                          9.8488
_cell_length_b                          10.613
_cell_length_c                          12.6336
_cell_angle_alpha                       69.658
_cell_angle_beta                        73.772
_cell_angle_gamma                       62.537
_symmetry_space_group_name_H-M          'P 1'
_symmetry_int_tables_number             1
loop_
  _symmetry_equiv_pos_as_xyz
         'x, y, z' 
loop_
  _atom_site_label
  _atom_site_occupancy
  _atom_site_fract_x
  _atom_site_fract_y
  _atom_site_fract_z
  _atom_site_thermal_displace_type
  _atom_site_B_iso_or_equiv
  _atom_site_type_symbol
  _atom_site_charge
         C1        1.0000    0.53490   0.87810   0.96290   Biso      1.000     C          -0.113244           
         C2        1.0000    0.63090   0.95440   0.91860   Biso      1.000     C          -0.011028           
         C3        1.0000    0.59380   0.07620   0.95660   Biso      1.000     C          -0.106282           
         C4        1.0000    0.77440   0.90120   0.83600   Biso      1.000     C          0.591458  
         C5        1.0000    0.60840   0.42960   0.07670   Biso      1.000     C          -0.008135           
         C6        1.0000    0.65200   0.42410   0.96440   Biso      1.000     C          -0.09936  
         C7        1.0000    0.45450   0.50760   0.11120   Biso      1.000     C          -0.107413           
         C8        1.0000    0.72460   0.35490   0.15910   Biso      1.000     C          0.587552  
         C9        1.0000    0.64920   0.98640   0.49020   Biso      1.000     C          -0.043975           
         C10       1.0000    0.56850   0.06630   0.39760   Biso      1.000     C          -0.09301  
         C11       1.0000    0.58160   0.91960   0.59270   Biso      1.000     C          -0.09824  
         C12       1.0000    0.81010   0.97440   0.48090   Biso      1.000     C          0.671643  
         C13       1.0000    0.36910   0.04560   0.08140   Biso      1.000     C          -0.011029           
         C14       1.0000    0.40620   0.92380   0.04340   Biso      1.000     C          -0.106281           
         C15       1.0000    0.46510   0.12190   0.03710   Biso      1.000     C          -0.113243           
         C16       1.0000    0.22560   0.09880   0.16400   Biso      1.000     C          0.591458  
         C17       1.0000    0.18990   0.02560   0.51910   Biso      1.000     C          0.671642  
         C18       1.0000    0.43150   0.93370   0.60240   Biso      1.000     C          -0.09301  
         C19       1.0000    0.41840   0.08040   0.40730   Biso      1.000     C          -0.098242           
         C20       1.0000    0.27540   0.64510   0.84090   Biso      1.000     C          0.587551  
         C21       1.0000    0.54550   0.49240   0.88880   Biso      1.000     C          -0.107418           
         C22       1.0000    0.34800   0.57590   0.03560   Biso      1.000     C          -0.099365           
         C23       1.0000    0.39160   0.57040   0.92330   Biso      1.000     C          -0.008128           
         C24       1.0000    0.35080   0.01360   0.50980   Biso      1.000     C          -0.043973           
         H1        1.0000    0.24460   0.62680   0.06130   Biso      1.000     H          0.122222  
         H2        1.0000    0.57820   0.48560   0.81370   Biso      1.000     H          0.119311  
         H3        1.0000    0.38530   0.88970   0.67060   Biso      1.000     H          0.124594  
         H4        1.0000    0.36350   0.13400   0.34570   Biso      1.000     H          0.122709  
         H5        1.0000    0.65640   0.12810   0.92760   Biso      1.000     H          0.116173  
         H6        1.0000    0.55720   0.79650   0.93850   Biso      1.000     H          0.116452  
         H7        1.0000    0.75540   0.37320   0.93870   Biso      1.000     H          0.122221  
         H8        1.0000    0.61470   0.11030   0.32940   Biso      1.000     H          0.124594  
         H9        1.0000    0.63650   0.86600   0.65430   Biso      1.000     H          0.122708  
         H10       1.0000    0.34360   0.87190   0.07240   Biso      1.000     H          0.116173  
         H11       1.0000    0.44280   0.20350   0.06150   Biso      1.000     H          0.116452  
         H12       1.0000    0.42180   0.51440   0.18630   Biso      1.000     H          0.11931   
         O1        1.0000    0.86580   0.03990   0.38817   Biso      1.000     O          -0.615446           
         O2        1.0000    0.84980   0.97960   0.78368   Biso      1.000     O          -0.577828           
         O3        1.0000    0.87810   0.89840   0.56672   Biso      1.000     O          -0.656172           
         O4        1.0000    0.68370   0.37320   0.25863   Biso      1.000     O          -0.653091           
         O5        1.0000    0.86330   0.27610   0.12751   Biso      1.000     O          -0.596581           
         O6        1.0000    0.81840   0.77600   0.82051   Biso      1.000     O          -0.632797           
         O7        1.0000    0.15020   0.02040   0.21632   Biso      1.000     O          -0.577828           
         O8        1.0000    0.13420   0.96010   0.61183   Biso      1.000     O          -0.615446           
         O9        1.0000    0.31630   0.62680   0.74137   Biso      1.000     O          -0.653091           
         O10       1.0000    0.13670   0.72390   0.87249   Biso      1.000     O          -0.596581           
         O11       1.0000    0.18160   0.22400   0.17949   Biso      1.000     O          -0.632797           
         O12       1.0000    0.12190   0.10160   0.43328   Biso      1.000     O          -0.656172           
         Y1        1.0000    0.95111   0.21993   0.30880   Biso      1.000     Y          1.840492  
         Y2        1.0000    0.04889   0.78007   0.69120   Biso      1.000     Y          1.840493 