
##########################################################################
#               Crystallographic Information Format file
#               Produced by PyCifRW module
#
#  This is a CIF file.  CIF has been adopted by the International
#  Union of Crystallography as the standard for data archiving and
#  transmission.
#
#  For information on this file format, follow the CIF links at
#  http://www.iucr.org
##########################################################################

data_image0

_cell_length_a                          10.7471
_cell_length_b                          10.7471
_cell_length_c                          18.761
_cell_angle_alpha                       73.8124
_cell_angle_beta                        73.8124
_cell_angle_gamma                       64.5024
_symmetry_space_group_name_H-M          'P 1'
_symmetry_int_tables_number             1
loop_
  _symmetry_equiv_pos_as_xyz
         'x, y, z' 
loop_
  _atom_site_label
  _atom_site_occupancy
  _atom_site_fract_x
  _atom_site_fract_y
  _atom_site_fract_z
  _atom_site_thermal_displace_type
  _atom_site_B_iso_or_equiv
  _atom_site_type_symbol
  _atom_site_charge
         C1        1.0000    0.40500   0.13620   0.40470   Biso      1.000     C          -0.110437           
         C2        1.0000    0.17280   0.44040   0.82720   Biso      1.000     C          -0.047849           
         C3        1.0000    0.76160   0.44600   0.92890   Biso      1.000     C          0.659723  
         C4        1.0000    0.90880   0.43420   0.89300   Biso      1.000     C          -0.025772000000000003         
         C5        1.0000    0.88420   0.48520   0.48880   Biso      1.000     C          -0.024962           
         C6        1.0000    0.31090   0.45670   0.79310   Biso      1.000     C          0.655784  
         C7        1.0000    0.46590   0.94710   0.31450   Biso      1.000     C          -0.099631           
         C8        1.0000    0.40160   0.00580   0.43660   Biso      1.000     C          -0.10041900000000001          
         C9        1.0000    0.45950   0.00570   0.93490   Biso      1.000     C          -0.106072           
         C10       1.0000    0.46850   0.07770   0.28230   Biso      1.000     C          -0.10331800000000001          
         C11       1.0000    0.52580   0.87940   0.05410   Biso      1.000     C          -0.10623900000000001          
         C12       1.0000    0.47100   0.75940   0.97670   Biso      1.000     C          0.648888  
         C13       1.0000    0.44040   0.17280   0.32720   Biso      1.000     C          -0.047849           
         C14       1.0000    0.44600   0.76160   0.42890   Biso      1.000     C          0.659723  
         C15       1.0000    0.48520   0.88420   0.98880   Biso      1.000     C          -0.024958           
         C16       1.0000    0.45670   0.31090   0.29310   Biso      1.000     C          0.655783  
         C17       1.0000    0.75940   0.47100   0.47670   Biso      1.000     C          0.648888  
         C18       1.0000    0.05290   0.53410   0.18550   Biso      1.000     C          -0.099631           
         C19       1.0000    0.87940   0.52580   0.55410   Biso      1.000     C          -0.10623699999999998          
         C20       1.0000    0.00570   0.45950   0.43490   Biso      1.000     C          -0.10606800000000001          
         C21       1.0000    0.53410   0.05290   0.68550   Biso      1.000     C          -0.099631           
         C22       1.0000    0.59840   0.99420   0.56340   Biso      1.000     C          -0.100423           
         C23       1.0000    0.59500   0.86380   0.59530   Biso      1.000     C          -0.11043299999999999          
         C24       1.0000    0.54050   0.99430   0.06510   Biso      1.000     C          -0.10607  
         C25       1.0000    0.53150   0.92230   0.71770   Biso      1.000     C          -0.10331800000000001          
         C26       1.0000    0.47420   0.12060   0.94590   Biso      1.000     C          -0.10623699999999998          
         C27       1.0000    0.52900   0.24060   0.02330   Biso      1.000     C          0.648888  
         C28       1.0000    0.55960   0.82720   0.67280   Biso      1.000     C          -0.047849           
         C29       1.0000    0.55400   0.23840   0.57110   Biso      1.000     C          0.659723  
         C30       1.0000    0.56580   0.09120   0.60700   Biso      1.000     C          -0.025767           
         C31       1.0000    0.51480   0.11580   0.01120   Biso      1.000     C          -0.024958           
         C32       1.0000    0.54330   0.68910   0.70690   Biso      1.000     C          0.655784  
         C33       1.0000    0.94710   0.46590   0.81450   Biso      1.000     C          -0.099631           
         C34       1.0000    0.00580   0.40160   0.93660   Biso      1.000     C          -0.10041599999999999          
         C35       1.0000    0.13620   0.40500   0.90470   Biso      1.000     C          -0.11043399999999999          
         C36       1.0000    0.07770   0.46850   0.78230   Biso      1.000     C          -0.103317           
         C37       1.0000    0.99420   0.59840   0.06340   Biso      1.000     C          -0.100422           
         C38       1.0000    0.43420   0.90880   0.39300   Biso      1.000     C          -0.025767           
         C39       1.0000    0.99430   0.54050   0.56510   Biso      1.000     C          -0.10607  
         C40       1.0000    0.92230   0.53150   0.21770   Biso      1.000     C          -0.10331800000000001          
         C41       1.0000    0.12060   0.47420   0.44590   Biso      1.000     C          -0.10623699999999998          
         C42       1.0000    0.24060   0.52900   0.52330   Biso      1.000     C          0.648888  
         C43       1.0000    0.82720   0.55960   0.17280   Biso      1.000     C          -0.047849           
         C44       1.0000    0.23840   0.55400   0.07110   Biso      1.000     C          0.659723  
         C45       1.0000    0.09120   0.56580   0.10700   Biso      1.000     C          -0.025767           
         C46       1.0000    0.11580   0.51480   0.51120   Biso      1.000     C          -0.024958           
         C47       1.0000    0.68910   0.54330   0.20690   Biso      1.000     C          0.655784  
         C48       1.0000    0.86380   0.59500   0.09530   Biso      1.000     C          -0.11043399999999999          
         H1        1.0000    0.37650   0.98290   0.48870   Biso      1.000     H          0.114123  
         H2        1.0000    0.38360   0.20020   0.43530   Biso      1.000     H          0.110448  
         H3        1.0000    0.43230   0.01030   0.89100   Biso      1.000     H          0.11988   
         H4        1.0000    0.48940   0.10240   0.23010   Biso      1.000     H          0.118656  
         H5        1.0000    0.54340   0.79820   0.09070   Biso      1.000     H          0.11925699999999999           
         H6        1.0000    0.89760   0.51060   0.26990   Biso      1.000     H          0.118656  
         H7        1.0000    0.01710   0.62350   0.01130   Biso      1.000     H          0.114124  
         H8        1.0000    0.79980   0.61640   0.06470   Biso      1.000     H          0.110446  
         H9        1.0000    0.98970   0.56770   0.60900   Biso      1.000     H          0.11988   
         H10       1.0000    0.20180   0.45660   0.40930   Biso      1.000     H          0.11925699999999999           
         H11       1.0000    0.11630   0.51490   0.21610   Biso      1.000     H          0.120387  
         H12       1.0000    0.79820   0.54340   0.59070   Biso      1.000     H          0.11925699999999999           
         H13       1.0000    0.48510   0.88370   0.28390   Biso      1.000     H          0.120387  
         H14       1.0000    0.01030   0.43230   0.39100   Biso      1.000     H          0.11988   
         H15       1.0000    0.20020   0.38360   0.93530   Biso      1.000     H          0.110446  
         H16       1.0000    0.98290   0.37650   0.98870   Biso      1.000     H          0.114123  
         H17       1.0000    0.88370   0.48510   0.78390   Biso      1.000     H          0.120387  
         H18       1.0000    0.45660   0.20180   0.90930   Biso      1.000     H          0.11925699999999999           
         H19       1.0000    0.51060   0.89760   0.76990   Biso      1.000     H          0.118656  
         H20       1.0000    0.56770   0.98970   0.10900   Biso      1.000     H          0.11988   
         H21       1.0000    0.61640   0.79980   0.56470   Biso      1.000     H          0.110447  
         H22       1.0000    0.62350   0.01710   0.51130   Biso      1.000     H          0.114124  
         H23       1.0000    0.51490   0.11630   0.71610   Biso      1.000     H          0.120387  
         H24       1.0000    0.10240   0.48940   0.73010   Biso      1.000     H          0.118656  
         O1        1.0000    0.40870   0.73890   0.49932   Biso      1.000     O          -0.65468  
         O2        1.0000    0.33950   0.48490   0.72293   Biso      1.000     O          -0.6231439999999999           
         O3        1.0000    0.38810   0.44030   0.83702   Biso      1.000     O          -0.644995           
         O4        1.0000    0.64810   0.50330   0.52400   Biso      1.000     O          -0.661415           
         O5        1.0000    0.67340   0.49140   0.88730   Biso      1.000     O          -0.606416           
         O6        1.0000    0.42810   0.77150   0.91860   Biso      1.000     O          -0.6268020000000001           
         O7        1.0000    0.73890   0.40870   0.99932   Biso      1.000     O          -0.65468  
         O8        1.0000    0.50860   0.32660   0.61270   Biso      1.000     O          -0.606416           
         O9        1.0000    0.49670   0.35190   0.97600   Biso      1.000     O          -0.661415           
         O10       1.0000    0.55970   0.61190   0.66298   Biso      1.000     O          -0.644995           
         O11       1.0000    0.51510   0.66050   0.77707   Biso      1.000     O          -0.6231439999999999           
         O12       1.0000    0.77150   0.42810   0.41860   Biso      1.000     O          -0.6268020000000001           
         O13       1.0000    0.49140   0.67340   0.38730   Biso      1.000     O          -0.606416           
         O14       1.0000    0.59130   0.26110   0.50068   Biso      1.000     O          -0.65468  
         O15       1.0000    0.44030   0.38810   0.33702   Biso      1.000     O          -0.644995           
         O16       1.0000    0.48490   0.33950   0.22293   Biso      1.000     O          -0.6231439999999999           
         O17       1.0000    0.26110   0.59130   0.00068   Biso      1.000     O          -0.65468  
         O18       1.0000    0.22850   0.57190   0.58140   Biso      1.000     O          -0.6268020000000001           
         O19       1.0000    0.32660   0.50860   0.11270   Biso      1.000     O          -0.606416           
         O20       1.0000    0.35190   0.49670   0.47600   Biso      1.000     O          -0.661415           
         O21       1.0000    0.61190   0.55970   0.16298   Biso      1.000     O          -0.644995           
         O22       1.0000    0.66050   0.51510   0.27707   Biso      1.000     O          -0.6231439999999999           
         O23       1.0000    0.57190   0.22850   0.08140   Biso      1.000     O          -0.6268020000000001           
         O24       1.0000    0.50330   0.64810   0.02400   Biso      1.000     O          -0.661415           
         Y1        1.0000    0.43719   0.56503   0.89565   Biso      1.000     Y          1.8749939999999998  
         Y2        1.0000    0.43497   0.56281   0.60435   Biso      1.000     Y          1.8749939999999998  
         Y3        1.0000    0.56281   0.43497   0.10435   Biso      1.000     Y          1.8749939999999998  
         Y4        1.0000    0.56503   0.43719   0.39565   Biso      1.000     Y          1.8749939999999998 