
##########################################################################
#               Crystallographic Information Format file
#               Produced by PyCifRW module
#
#  This is a CIF file.  CIF has been adopted by the International
#  Union of Crystallography as the standard for data archiving and
#  transmission.
#
#  For information on this file format, follow the CIF links at
#  http://www.iucr.org
##########################################################################

data_image0

_cell_length_a                          9.3659
_cell_length_b                          10.5662
_cell_length_c                          11.0781
_cell_angle_alpha                       98.841
_cell_angle_beta                        112.937
_cell_angle_gamma                       113.844
_symmetry_space_group_name_H-M          'P 1'
_symmetry_int_tables_number             1
loop_
  _symmetry_equiv_pos_as_xyz
         'x, y, z' 
loop_
  _atom_site_label
  _atom_site_occupancy
  _atom_site_fract_x
  _atom_site_fract_y
  _atom_site_fract_z
  _atom_site_thermal_displace_type
  _atom_site_B_iso_or_equiv
  _atom_site_type_symbol
  _atom_site_charge
         C1        1.0000    0.17990   0.56660   0.53810   Biso      1.000     C          -0.11129800000000001          
         C2        1.0000    0.12660   0.63000   0.61840   Biso      1.000     C          -0.027514           
         C3        1.0000    0.94590   0.56380   0.57890   Biso      1.000     C          -0.103985           
         C4        1.0000    0.26270   0.77120   0.74570   Biso      1.000     C          0.641708  
         C5        1.0000    0.45620   0.66260   0.10560   Biso      1.000     C          -0.028419999999999997         
         C6        1.0000    0.27050   0.59160   0.04420   Biso      1.000     C          -0.116949           
         C7        1.0000    0.17420   0.45000   0.03790   Biso      1.000     C          -0.105741           
         C8        1.0000    0.26210   0.37980   0.10080   Biso      1.000     C          -0.022612           
         C9        1.0000    0.44610   0.44940   0.16280   Biso      1.000     C          -0.10481900000000001          
         C10       1.0000    0.54290   0.58970   0.16380   Biso      1.000     C          -0.091584           
         C11       1.0000    0.55740   0.80980   0.09570   Biso      1.000     C          0.617958  
         C12       1.0000    0.15230   0.22390   0.09170   Biso      1.000     C          0.677398  
         C13       1.0000    0.87340   0.37000   0.38160   Biso      1.000     C          -0.027514999999999998         
         C14       1.0000    0.05410   0.43620   0.42110   Biso      1.000     C          -0.103984           
         C15       1.0000    0.82010   0.43340   0.46190   Biso      1.000     C          -0.11129700000000001          
         C16       1.0000    0.73730   0.22880   0.25430   Biso      1.000     C          0.641708  
         C17       1.0000    0.84770   0.77610   0.90830   Biso      1.000     C          0.677398  
         C18       1.0000    0.45710   0.41030   0.83620   Biso      1.000     C          -0.091585           
         C19       1.0000    0.44260   0.19020   0.90430   Biso      1.000     C          0.617958  
         C20       1.0000    0.73790   0.62020   0.89920   Biso      1.000     C          -0.022612           
         C21       1.0000    0.82580   0.55000   0.96210   Biso      1.000     C          -0.105744           
         C22       1.0000    0.72950   0.40840   0.95580   Biso      1.000     C          -0.11694700000000001          
         C23       1.0000    0.54380   0.33740   0.89440   Biso      1.000     C          -0.028417           
         C24       1.0000    0.55390   0.55060   0.83720   Biso      1.000     C          -0.10481900000000001          
         H1        1.0000    0.78940   0.35990   0.99290   Biso      1.000     H          0.10493499999999999           
         H2        1.0000    0.95100   0.59920   0.00910   Biso      1.000     H          0.108319  
         H3        1.0000    0.49410   0.59760   0.79590   Biso      1.000     H          0.11793699999999999           
         H4        1.0000    0.33260   0.36460   0.79590   Biso      1.000     H          0.121448  
         H5        1.0000    0.90900   0.60710   0.63110   Biso      1.000     H          0.12441600000000001           
         H6        1.0000    0.30080   0.61190   0.56300   Biso      1.000     H          0.12116600000000001           
         H7        1.0000    0.21060   0.64010   0.00710   Biso      1.000     H          0.10493499999999999           
         H8        1.0000    0.50590   0.40240   0.20410   Biso      1.000     H          0.11793699999999999           
         H9        1.0000    0.66740   0.63540   0.20410   Biso      1.000     H          0.121448  
         H10       1.0000    0.09100   0.39290   0.36890   Biso      1.000     H          0.12441600000000001           
         H11       1.0000    0.69920   0.38810   0.43700   Biso      1.000     H          0.12116600000000001           
         H12       1.0000    0.04900   0.40080   0.99090   Biso      1.000     H          0.108319  
         O1        1.0000    0.99450   0.17850   0.06490   Biso      1.000     O          -0.634912           
         O2        1.0000    0.42530   0.81970   0.78510   Biso      1.000     O          -0.63113  
         O3        1.0000    0.22640   0.14680   0.11460   Biso      1.000     O          -0.645526           
         O4        1.0000    0.71150   0.85470   0.11530   Biso      1.000     O          -0.545026           
         O5        1.0000    0.47550   0.87930   0.05630   Biso      1.000     O          -0.708124           
         O6        1.0000    0.20010   0.82840   0.80490   Biso      1.000     O          -0.624157           
         O7        1.0000    0.57470   0.18030   0.21490   Biso      1.000     O          -0.63113  
         O8        1.0000    0.00550   0.82150   0.93510   Biso      1.000     O          -0.634912           
         O9        1.0000    0.28850   0.14530   0.88470   Biso      1.000     O          -0.545026           
         O10       1.0000    0.52450   0.12070   0.94370   Biso      1.000     O          -0.708124           
         O11       1.0000    0.79990   0.17160   0.19510   Biso      1.000     O          -0.624157           
         O12       1.0000    0.77360   0.85320   0.88540   Biso      1.000     O          -0.645526           
         Y1        1.0000    0.69761   0.01050   0.97633   Biso      1.000     Y          1.86651   
         Y2        1.0000    0.30239   0.98950   0.02367   Biso      1.000     Y          1.86651 