
##########################################################################
#               Crystallographic Information Format file
#               Produced by PyCifRW module
#
#  This is a CIF file.  CIF has been adopted by the International
#  Union of Crystallography as the standard for data archiving and
#  transmission.
#
#  For information on this file format, follow the CIF links at
#  http://www.iucr.org
##########################################################################

data_image0

_cell_length_a                          9.8739
_cell_length_b                          10.4767
_cell_length_c                          11.0735
_cell_angle_alpha                       77.23
_cell_angle_beta                        76.421
_cell_angle_gamma                       66.166
_symmetry_space_group_name_H-M          'P 1'
_symmetry_int_tables_number             1
loop_
  _symmetry_equiv_pos_as_xyz
         'x, y, z' 
loop_
  _atom_site_label
  _atom_site_occupancy
  _atom_site_fract_x
  _atom_site_fract_y
  _atom_site_fract_z
  _atom_site_thermal_displace_type
  _atom_site_B_iso_or_equiv
  _atom_site_type_symbol
  _atom_site_charge
         C1        1.0000    0.47280   0.11000   0.56320   Biso      1.000     C          -0.11047  
         C2        1.0000    0.72090   0.38970   0.66540   Biso      1.000     C          0.596021  
         C3        1.0000    0.64220   0.50130   0.45540   Biso      1.000     C          -0.097261           
         C4        1.0000    0.46190   0.44860   0.62410   Biso      1.000     C          -0.11196099999999999          
         C5        1.0000    0.60710   0.44860   0.58010   Biso      1.000     C          -0.005096           
         C6        1.0000    0.80840   0.97550   0.96610   Biso      1.000     C          0.689664  
         C7        1.0000    0.55970   0.06990   0.89310   Biso      1.000     C          -0.088852           
         C8        1.0000    0.58880   0.91630   0.09010   Biso      1.000     C          -0.10308699999999998          
         C9        1.0000    0.64840   0.98630   0.98240   Biso      1.000     C          -0.036619           
         C10       1.0000    0.20670   0.13020   0.64420   Biso      1.000     C          0.5933930000000001  
         C11       1.0000    0.35160   0.01370   0.01760   Biso      1.000     C          -0.036621           
         C12       1.0000    0.41120   0.08370   0.90990   Biso      1.000     C          -0.103084           
         C13       1.0000    0.44030   0.93010   0.10690   Biso      1.000     C          -0.08885  
         C14       1.0000    0.19160   0.02450   0.03390   Biso      1.000     C          0.689664  
         C15       1.0000    0.39290   0.55140   0.41990   Biso      1.000     C          -0.005097           
         C16       1.0000    0.53810   0.55140   0.37590   Biso      1.000     C          -0.11195999999999999          
         C17       1.0000    0.35780   0.49870   0.54460   Biso      1.000     C          -0.097258           
         C18       1.0000    0.27910   0.61030   0.33460   Biso      1.000     C          0.596021  
         C19       1.0000    0.64270   0.93480   0.43330   Biso      1.000     C          -0.005196           
         C20       1.0000    0.61400   0.04650   0.49660   Biso      1.000     C          -0.10557799999999999          
         C21       1.0000    0.52720   0.89000   0.43680   Biso      1.000     C          -0.11046900000000001          
         C22       1.0000    0.79330   0.86980   0.35580   Biso      1.000     C          0.593392  
         C23       1.0000    0.35730   0.06520   0.56670   Biso      1.000     C          -0.005196           
         C24       1.0000    0.38600   0.95350   0.50340   Biso      1.000     C          -0.10557799999999999          
         Gd1       1.0000    0.94445   0.22750   0.82279   Biso      1.000     Gd          2.003933  
         Gd2       1.0000    0.05555   0.77250   0.17721   Biso      1.000     Gd          2.003933  
         H1        1.0000    0.64830   0.86070   0.15030   Biso      1.000     H          0.117096  
         H2        1.0000    0.59990   0.11680   0.82160   Biso      1.000     H          0.12434100000000001           
         H3        1.0000    0.43580   0.41450   0.70760   Biso      1.000     H          0.119052  
         H4        1.0000    0.73780   0.50280   0.42510   Biso      1.000     H          0.127828  
         H5        1.0000    0.31000   0.92150   0.50600   Biso      1.000     H          0.126308  
         H6        1.0000    0.54500   0.81640   0.39380   Biso      1.000     H          0.111223  
         H7        1.0000    0.35170   0.13930   0.84970   Biso      1.000     H          0.117096  
         H8        1.0000    0.40010   0.88320   0.17840   Biso      1.000     H          0.12434100000000001           
         H9        1.0000    0.56420   0.58550   0.29240   Biso      1.000     H          0.119052  
         H10       1.0000    0.26220   0.49720   0.57490   Biso      1.000     H          0.127828  
         H11       1.0000    0.69000   0.07850   0.49400   Biso      1.000     H          0.126308  
         H12       1.0000    0.45500   0.18360   0.60620   Biso      1.000     H          0.111223  
         O1        1.0000    0.31690   0.65080   0.22030   Biso      1.000     O          -0.693681           
         O2        1.0000    0.14530   0.62160   0.37600   Biso      1.000     O          -0.630726           
         O3        1.0000    0.11730   0.10290   0.95020   Biso      1.000     O          -0.722428           
         O4        1.0000    0.14360   0.95430   0.12870   Biso      1.000     O          -0.649443           
         O5        1.0000    0.11810   0.06400   0.67630   Biso      1.000     O          -0.613797           
         O6        1.0000    0.85470   0.37840   0.62400   Biso      1.000     O          -0.630726           
         O7        1.0000    0.68310   0.34920   0.77970   Biso      1.000     O          -0.693681           
         O8        1.0000    0.88270   0.89710   0.04980   Biso      1.000     O          -0.722428           
         O9        1.0000    0.85640   0.04570   0.87130   Biso      1.000     O          -0.649443           
         O10       1.0000    0.82770   0.75310   0.31960   Biso      1.000     O          -0.634664           
         O11       1.0000    0.17230   0.24690   0.68040   Biso      1.000     O          -0.634664           
         O12       1.0000    0.88190   0.93600   0.32370   Biso      1.000     O          -0.613797 