
##########################################################################
#               Crystallographic Information Format file
#               Produced by PyCifRW module
#
#  This is a CIF file.  CIF has been adopted by the International
#  Union of Crystallography as the standard for data archiving and
#  transmission.
#
#  For information on this file format, follow the CIF links at
#  http://www.iucr.org
##########################################################################

data_image0

_cell_length_a                          9.9098
_cell_length_b                          10.5314
_cell_length_c                          11.0619
_cell_angle_alpha                       77.711
_cell_angle_beta                        76.638
_cell_angle_gamma                       66.32
_symmetry_space_group_name_H-M          'P 1'
_symmetry_int_tables_number             1
loop_
  _symmetry_equiv_pos_as_xyz
         'x, y, z' 
loop_
  _atom_site_label
  _atom_site_occupancy
  _atom_site_fract_x
  _atom_site_fract_y
  _atom_site_fract_z
  _atom_site_thermal_displace_type
  _atom_site_B_iso_or_equiv
  _atom_site_type_symbol
  _atom_site_charge
         C1        1.0000    0.47160   0.10980   0.56390   Biso      1.000     C          -0.111996           
         C2        1.0000    0.35840   0.06350   0.56610   Biso      1.000     C          -0.0040030000000000005        
         C3        1.0000    0.38840   0.95250   0.50380   Biso      1.000     C          -0.104235           
         C4        1.0000    0.20740   0.12860   0.64430   Biso      1.000     C          0.59154   
         C5        1.0000    0.35130   0.01280   0.01820   Biso      1.000     C          -0.036316           
         C6        1.0000    0.40890   0.08320   0.91200   Biso      1.000     C          -0.10391800000000001          
         C7        1.0000    0.44190   0.93010   0.10600   Biso      1.000     C          -0.08936799999999999          
         C8        1.0000    0.19140   0.02560   0.03520   Biso      1.000     C          0.6932470000000001  
         C9        1.0000    0.39420   0.55140   0.42090   Biso      1.000     C          -0.0014089999999999999        
         C10       1.0000    0.53700   0.55280   0.37660   Biso      1.000     C          -0.11252100000000001          
         C11       1.0000    0.35690   0.49780   0.54410   Biso      1.000     C          -0.098996           
         C12       1.0000    0.27970   0.61030   0.33520   Biso      1.000     C          0.587761  
         C13       1.0000    0.64160   0.93650   0.43390   Biso      1.000     C          -0.004007           
         C14       1.0000    0.61160   0.04750   0.49620   Biso      1.000     C          -0.10423199999999999          
         C15       1.0000    0.52840   0.89020   0.43610   Biso      1.000     C          -0.11199100000000001          
         C16       1.0000    0.79260   0.87140   0.35570   Biso      1.000     C          0.59154   
         C17       1.0000    0.72030   0.38970   0.66480   Biso      1.000     C          0.5877600000000001  
         C18       1.0000    0.46300   0.44720   0.62340   Biso      1.000     C          -0.112522           
         C19       1.0000    0.64310   0.50220   0.45590   Biso      1.000     C          -0.098999           
         C20       1.0000    0.80860   0.97440   0.96480   Biso      1.000     C          0.6932470000000001  
         C21       1.0000    0.55810   0.06990   0.89400   Biso      1.000     C          -0.089371           
         C22       1.0000    0.59110   0.91680   0.08800   Biso      1.000     C          -0.10392  
         C23       1.0000    0.64870   0.98720   0.98180   Biso      1.000     C          -0.036312           
         C24       1.0000    0.60580   0.44860   0.57910   Biso      1.000     C          -0.0014060000000000001        
         H1        1.0000    0.65130   0.86100   0.14710   Biso      1.000     H          0.11629   
         H2        1.0000    0.59690   0.11700   0.82250   Biso      1.000     H          0.12238399999999999           
         H3        1.0000    0.43820   0.41230   0.70650   Biso      1.000     H          0.120959  
         H4        1.0000    0.73810   0.50430   0.42650   Biso      1.000     H          0.130884  
         H5        1.0000    0.31360   0.91900   0.50730   Biso      1.000     H          0.123432  
         H6        1.0000    0.45340   0.18270   0.60780   Biso      1.000     H          0.113     
         H7        1.0000    0.34870   0.13900   0.85290   Biso      1.000     H          0.11629   
         H8        1.0000    0.56180   0.58770   0.29350   Biso      1.000     H          0.120958  
         H9        1.0000    0.26190   0.49570   0.57350   Biso      1.000     H          0.130883  
         H10       1.0000    0.68640   0.08100   0.49270   Biso      1.000     H          0.123431  
         H11       1.0000    0.54660   0.81730   0.39220   Biso      1.000     H          0.113     
         H12       1.0000    0.40310   0.88300   0.17750   Biso      1.000     H          0.12238399999999999           
         O1        1.0000    0.14690   0.62020   0.37580   Biso      1.000     O          -0.630043           
         O2        1.0000    0.11950   0.06120   0.67500   Biso      1.000     O          -0.6227590000000001           
         O3        1.0000    0.31880   0.65160   0.22020   Biso      1.000     O          -0.703695           
         O4        1.0000    0.11950   0.10200   0.95160   Biso      1.000     O          -0.727418           
         O5        1.0000    0.14370   0.95580   0.12930   Biso      1.000     O          -0.661158           
         O6        1.0000    0.17290   0.24480   0.67930   Biso      1.000     O          -0.631777           
         O7        1.0000    0.88050   0.93880   0.32500   Biso      1.000     O          -0.6227590000000001           
         O8        1.0000    0.85310   0.37980   0.62420   Biso      1.000     O          -0.630043           
         O9        1.0000    0.88050   0.89800   0.04840   Biso      1.000     O          -0.727418           
         O10       1.0000    0.85630   0.04420   0.87070   Biso      1.000     O          -0.661158           
         O11       1.0000    0.82710   0.75520   0.32070   Biso      1.000     O          -0.631777           
         O12       1.0000    0.68120   0.34840   0.77980   Biso      1.000     O          -0.703695           
         Sm1       1.0000    0.05602   0.77361   0.17713   Biso      1.000     Sm          2.040116  
         Sm2       1.0000    0.94398   0.22639   0.82287   Biso      1.000     Sm          2.040116 