
##########################################################################
#               Crystallographic Information Format file
#               Produced by PyCifRW module
#
#  This is a CIF file.  CIF has been adopted by the International
#  Union of Crystallography as the standard for data archiving and
#  transmission.
#
#  For information on this file format, follow the CIF links at
#  http://www.iucr.org
##########################################################################

data_image0

_cell_length_a                          8.5679
_cell_length_b                          10.1868
_cell_length_c                          10.8724
_cell_angle_alpha                       66.791
_cell_angle_beta                        69.316
_cell_angle_gamma                       78.246
_symmetry_space_group_name_H-M          'P 1'
_symmetry_int_tables_number             1
loop_
  _symmetry_equiv_pos_as_xyz
         'x, y, z' 
loop_
  _atom_site_label
  _atom_site_occupancy
  _atom_site_fract_x
  _atom_site_fract_y
  _atom_site_fract_z
  _atom_site_thermal_displace_type
  _atom_site_B_iso_or_equiv
  _atom_site_type_symbol
  _atom_site_charge
         C1        1.0000    0.91280   0.92640   0.63620   Biso      1.000     C          -0.10106799999999999          
         C2        1.0000    0.17180   0.77930   0.68570   Biso      1.000     C          0.5623520000000001  
         C3        1.0000    0.08320   0.89600   0.58900   Biso      1.000     C          -0.023    
         C4        1.0000    0.17120   0.97180   0.45120   Biso      1.000     C          -0.086014           
         C5        1.0000    0.33920   0.46040   0.33270   Biso      1.000     C          0.549759  
         C6        1.0000    0.16390   0.48180   0.41820   Biso      1.000     C          -0.006956           
         C7        1.0000    0.12280   0.57620   0.49070   Biso      1.000     C          -0.10222  
         C8        1.0000    0.03980   0.40530   0.42980   Biso      1.000     C          -0.104999           
         C9        1.0000    0.44420   0.74000   0.98190   Biso      1.000     C          0.619397  
         C10       1.0000    0.47270   0.87350   0.99260   Biso      1.000     C          0.010471  
         C11       1.0000    0.62710   0.89420   0.99050   Biso      1.000     C          -0.107351           
         C12       1.0000    0.34560   0.98090   0.00120   Biso      1.000     C          -0.090205           
         C13       1.0000    0.82820   0.22070   0.31430   Biso      1.000     C          0.562381  
         C14       1.0000    0.91680   0.10400   0.41100   Biso      1.000     C          -0.023    
         C15       1.0000    0.08720   0.07360   0.36380   Biso      1.000     C          -0.10107000000000001          
         C16       1.0000    0.82880   0.02820   0.54880   Biso      1.000     C          -0.086016           
         C17       1.0000    0.65440   0.01910   0.99880   Biso      1.000     C          -0.09021  
         C18       1.0000    0.52730   0.12650   0.00740   Biso      1.000     C          0.010473999999999999          
         C19       1.0000    0.37290   0.10580   0.00950   Biso      1.000     C          -0.107352           
         C20       1.0000    0.96020   0.59470   0.57020   Biso      1.000     C          -0.10499700000000001          
         C21       1.0000    0.87720   0.42380   0.50930   Biso      1.000     C          -0.10221799999999999          
         C22       1.0000    0.83610   0.51820   0.58180   Biso      1.000     C          -0.006954999999999999         
         C23       1.0000    0.66080   0.53960   0.66730   Biso      1.000     C          0.549758  
         C24       1.0000    0.55580   0.26000   0.01810   Biso      1.000     C          0.61941   
         H1        1.0000    0.79480   0.37310   0.51460   Biso      1.000     H          0.119325  
         H2        1.0000    0.93330   0.65940   0.61690   Biso      1.000     H          0.10731199999999999           
         H3        1.0000    0.28590   0.17650   0.01650   Biso      1.000     H          0.118528  
         H4        1.0000    0.75920   0.03110   0.99860   Biso      1.000     H          0.125945  
         H5        1.0000    0.85350   0.87720   0.72860   Biso      1.000     H          0.11053299999999999           
         H6        1.0000    0.28640   0.95380   0.41830   Biso      1.000     H          0.126497  
         H7        1.0000    0.20520   0.62690   0.48540   Biso      1.000     H          0.119324  
         H8        1.0000    0.71410   0.82350   0.98350   Biso      1.000     H          0.118531  
         H9        1.0000    0.24080   0.96890   0.00140   Biso      1.000     H          0.125944  
         H10       1.0000    0.14650   0.12280   0.27140   Biso      1.000     H          0.11053099999999999           
         H11       1.0000    0.71360   0.04620   0.58170   Biso      1.000     H          0.126497  
         H12       1.0000    0.06670   0.34060   0.38310   Biso      1.000     H          0.10731199999999999           
         O1        1.0000    0.52970   0.62710   0.02810   Biso      1.000     O          -0.603254           
         O2        1.0000    0.09270   0.71380   0.80920   Biso      1.000     O          -0.5514859999999999           
         O3        1.0000    0.34150   0.74750   0.92150   Biso      1.000     O          -0.5315380000000001           
         O4        1.0000    0.45440   0.51850   0.33280   Biso      1.000     O          -0.471341           
         O5        1.0000    0.37020   0.38210   0.25830   Biso      1.000     O          -0.48226199999999997          
         O6        1.0000    0.32650   0.75140   0.63570   Biso      1.000     O          -0.5249050000000001           
         O7        1.0000    0.90730   0.28620   0.19080   Biso      1.000     O          -0.551495           
         O8        1.0000    0.47030   0.37290   0.97190   Biso      1.000     O          -0.60326  
         O9        1.0000    0.54560   0.48150   0.66720   Biso      1.000     O          -0.471346           
         O10       1.0000    0.62980   0.61790   0.74170   Biso      1.000     O          -0.482257           
         O11       1.0000    0.67350   0.24860   0.36430   Biso      1.000     O          -0.5249510000000001           
         O12       1.0000    0.65850   0.25250   0.07850   Biso      1.000     O          -0.531547           
         Yb1       1.0000    0.65437   0.43302   0.15639   Biso      1.000     Yb          1.336495  
         Yb2       1.0000    0.34563   0.56698   0.84361   Biso      1.000     Yb          1.3364989999999999 