
##########################################################################
#               Crystallographic Information Format file
#               Produced by PyCifRW module
#
#  This is a CIF file.  CIF has been adopted by the International
#  Union of Crystallography as the standard for data archiving and
#  transmission.
#
#  For information on this file format, follow the CIF links at
#  http://www.iucr.org
##########################################################################

data_image0

_cell_length_a                          8.5776
_cell_length_b                          10.195
_cell_length_c                          10.9115
_cell_angle_alpha                       66.672
_cell_angle_beta                        69.425
_cell_angle_gamma                       78.113
_symmetry_space_group_name_H-M          'P 1'
_symmetry_int_tables_number             1
loop_
  _symmetry_equiv_pos_as_xyz
         'x, y, z' 
loop_
  _atom_site_label
  _atom_site_occupancy
  _atom_site_fract_x
  _atom_site_fract_y
  _atom_site_fract_z
  _atom_site_thermal_displace_type
  _atom_site_B_iso_or_equiv
  _atom_site_type_symbol
  _atom_site_charge
         C1        1.0000    0.91320   0.92630   0.63480   Biso      1.000     C          -0.100392           
         C2        1.0000    0.65870   0.01710   0.99640   Biso      1.000     C          -0.090692           
         C3        1.0000    0.37400   0.10690   0.01260   Biso      1.000     C          -0.10883599999999999          
         C4        1.0000    0.53010   0.12400   0.00740   Biso      1.000     C          -0.015418000000000001         
         C5        1.0000    0.56390   0.25570   0.02030   Biso      1.000     C          0.685901  
         C6        1.0000    0.96220   0.59450   0.56950   Biso      1.000     C          -0.113896           
         C7        1.0000    0.87710   0.42240   0.50910   Biso      1.000     C          -0.110893           
         C8        1.0000    0.83750   0.51820   0.58100   Biso      1.000     C          -0.009234000000000001         
         C9        1.0000    0.66220   0.54010   0.66700   Biso      1.000     C          0.604873  
         C10       1.0000    0.17120   0.96930   0.45180   Biso      1.000     C          -0.091382           
         C11       1.0000    0.33780   0.45990   0.33300   Biso      1.000     C          0.6048720000000001  
         C12       1.0000    0.16250   0.48180   0.41900   Biso      1.000     C          -0.009234000000000001         
         C13       1.0000    0.12290   0.57760   0.49090   Biso      1.000     C          -0.110884           
         C14       1.0000    0.03780   0.40550   0.43050   Biso      1.000     C          -0.11388699999999999          
         C15       1.0000    0.43610   0.74430   0.97970   Biso      1.000     C          0.6859    
         C16       1.0000    0.46990   0.87600   0.99260   Biso      1.000     C          -0.015425           
         C17       1.0000    0.62600   0.89310   0.98740   Biso      1.000     C          -0.108828           
         C18       1.0000    0.34130   0.98290   0.00360   Biso      1.000     C          -0.090688           
         C19       1.0000    0.82830   0.22000   0.31570   Biso      1.000     C          0.597222  
         C20       1.0000    0.91760   0.10590   0.41000   Biso      1.000     C          -0.007965999999999999         
         C21       1.0000    0.08680   0.07370   0.36520   Biso      1.000     C          -0.100385           
         C22       1.0000    0.82880   0.03070   0.54820   Biso      1.000     C          -0.091379           
         C23       1.0000    0.17170   0.78000   0.68430   Biso      1.000     C          0.597221  
         C24       1.0000    0.08240   0.89410   0.59000   Biso      1.000     C          -0.007961           
         Er1       1.0000    0.34667   0.56606   0.84658   Biso      1.000     Er          2.032052  
         Er2       1.0000    0.65333   0.43394   0.15342   Biso      1.000     Er          2.03205   
         H1        1.0000    0.79500   0.37130   0.51500   Biso      1.000     H          0.12301199999999998           
         H2        1.0000    0.93510   0.65860   0.61660   Biso      1.000     H          0.10992400000000001           
         H3        1.0000    0.28870   0.17840   0.02210   Biso      1.000     H          0.105101  
         H4        1.0000    0.76440   0.02800   0.99500   Biso      1.000     H          0.128972  
         H5        1.0000    0.85330   0.87640   0.72630   Biso      1.000     H          0.11189   
         H6        1.0000    0.71420   0.05080   0.58160   Biso      1.000     H          0.13096300000000002           
         H7        1.0000    0.20500   0.62870   0.48500   Biso      1.000     H          0.123011  
         H8        1.0000    0.06490   0.34140   0.38340   Biso      1.000     H          0.109923  
         H9        1.0000    0.71130   0.82160   0.97790   Biso      1.000     H          0.1051    
         H10       1.0000    0.23560   0.97200   0.00500   Biso      1.000     H          0.128972  
         H11       1.0000    0.14670   0.12360   0.27370   Biso      1.000     H          0.11189   
         H12       1.0000    0.28580   0.94920   0.41840   Biso      1.000     H          0.13096300000000002           
         O1        1.0000    0.33140   0.75490   0.92060   Biso      1.000     O          -0.629016           
         O2        1.0000    0.52020   0.62950   0.02370   Biso      1.000     O          -0.763137           
         O3        1.0000    0.45290   0.51990   0.33030   Biso      1.000     O          -0.6317149999999999           
         O4        1.0000    0.36840   0.38080   0.26040   Biso      1.000     O          -0.6411680000000001           
         O5        1.0000    0.09080   0.71100   0.80900   Biso      1.000     O          -0.697819           
         O6        1.0000    0.47980   0.37050   0.97630   Biso      1.000     O          -0.763137           
         O7        1.0000    0.66860   0.24510   0.07940   Biso      1.000     O          -0.629016           
         O8        1.0000    0.54710   0.48010   0.66970   Biso      1.000     O          -0.6317149999999999           
         O9        1.0000    0.63160   0.61920   0.73960   Biso      1.000     O          -0.641169           
         O10       1.0000    0.67310   0.24970   0.36360   Biso      1.000     O          -0.618363           
         O11       1.0000    0.32690   0.75030   0.63640   Biso      1.000     O          -0.618362           
         O12       1.0000    0.90920   0.28900   0.19100   Biso      1.000     O          -0.697818 