
##########################################################################
#               Crystallographic Information Format file
#               Produced by PyCifRW module
#
#  This is a CIF file.  CIF has been adopted by the International
#  Union of Crystallography as the standard for data archiving and
#  transmission.
#
#  For information on this file format, follow the CIF links at
#  http://www.iucr.org
##########################################################################

data_image0

_cell_length_a                          9.652
_cell_length_b                          14.067
_cell_length_c                          16.212
_cell_angle_alpha                       90
_cell_angle_beta                        90
_cell_angle_gamma                       106.58
_symmetry_space_group_name_H-M          'P 1'
_symmetry_int_tables_number             1
loop_
  _symmetry_equiv_pos_as_xyz
         'x, y, z' 
loop_
  _atom_site_label
  _atom_site_occupancy
  _atom_site_fract_x
  _atom_site_fract_y
  _atom_site_fract_z
  _atom_site_thermal_displace_type
  _atom_site_B_iso_or_equiv
  _atom_site_type_symbol
  _atom_site_charge
         C1        1.0000    0.74000   0.31740   0.21620   Biso      1.000     C          -0.101686           
         C2        1.0000    0.24000   0.81740   0.28380   Biso      1.000     C          -0.101686           
         C3        1.0000    0.17100   0.76120   0.22120   Biso      1.000     C          -0.093073           
         C4        1.0000    0.35300   0.67680   0.21520   Biso      1.000     C          -0.10874  
         C5        1.0000    0.42100   0.73130   0.27930   Biso      1.000     C          -0.10625899999999999          
         C6        1.0000    0.44500   0.86690   0.38960   Biso      1.000     C          0.637731  
         C7        1.0000    0.15000   0.62390   0.11360   Biso      1.000     C          0.654762  
         C8        1.0000    0.99120   0.96540   0.46330   Biso      1.000     C          0.489005  
         C9        1.0000    0.86450   0.30350   0.18480   Biso      1.000     C          -0.026070999999999997         
         C10       1.0000    0.67100   0.26120   0.27880   Biso      1.000     C          -0.093073           
         C11       1.0000    0.72400   0.18850   0.31410   Biso      1.000     C          -0.036827           
         C12       1.0000    0.85300   0.17680   0.28480   Biso      1.000     C          -0.10873800000000002          
         C13       1.0000    0.36450   0.80350   0.31520   Biso      1.000     C          -0.026070999999999997         
         C14       1.0000    0.92100   0.23130   0.22070   Biso      1.000     C          -0.10625899999999999          
         C15       1.0000    0.65000   0.12390   0.38640   Biso      1.000     C          0.654762  
         C16       1.0000    0.49120   0.46540   0.03670   Biso      1.000     C          0.489005  
         C17       1.0000    0.63550   0.19650   0.68480   Biso      1.000     C          -0.026077           
         C18       1.0000    0.76000   0.18260   0.71620   Biso      1.000     C          -0.10167899999999999          
         C19       1.0000    0.82900   0.23880   0.77880   Biso      1.000     C          -0.093074           
         C20       1.0000    0.77600   0.31150   0.81410   Biso      1.000     C          -0.036827           
         C21       1.0000    0.64700   0.32320   0.78480   Biso      1.000     C          -0.10873800000000002          
         C22       1.0000    0.57900   0.26870   0.72070   Biso      1.000     C          -0.10625899999999999          
         C23       1.0000    0.55500   0.13310   0.61040   Biso      1.000     C          0.637731  
         C24       1.0000    0.85000   0.37610   0.88640   Biso      1.000     C          0.654762  
         C25       1.0000    0.00880   0.03460   0.53670   Biso      1.000     C          0.489005  
         C26       1.0000    0.94500   0.36690   0.11040   Biso      1.000     C          0.637731  
         C27       1.0000    0.50880   0.53460   0.96330   Biso      1.000     C          0.489005  
         C28       1.0000    0.22400   0.68850   0.18590   Biso      1.000     C          -0.036825           
         C29       1.0000    0.05500   0.63310   0.88960   Biso      1.000     C          0.637731  
         C30       1.0000    0.07900   0.76870   0.77930   Biso      1.000     C          -0.10628  
         C31       1.0000    0.14700   0.82320   0.71520   Biso      1.000     C          -0.10871900000000001          
         C32       1.0000    0.27600   0.81150   0.68590   Biso      1.000     C          -0.036825           
         C33       1.0000    0.32900   0.73880   0.72120   Biso      1.000     C          -0.093101           
         C34       1.0000    0.26000   0.68260   0.78380   Biso      1.000     C          -0.101658           
         C35       1.0000    0.13550   0.69650   0.81520   Biso      1.000     C          -0.026070999999999997         
         C36       1.0000    0.35000   0.87610   0.61360   Biso      1.000     C          0.654762  
         H1        1.0000    0.29720   0.63390   0.80600   Biso      1.000     H          0.119055  
         H2        1.0000    0.41390   0.72900   0.70090   Biso      1.000     H          0.11458499999999999           
         H3        1.0000    0.10750   0.86900   0.69040   Biso      1.000     H          0.117828  
         H4        1.0000    0.99470   0.77880   0.79990   Biso      1.000     H          0.121499  
         H5        1.0000    0.20280   0.86610   0.30600   Biso      1.000     H          0.119057  
         H6        1.0000    0.08610   0.77100   0.20090   Biso      1.000     H          0.11458299999999999           
         H7        1.0000    0.50530   0.72120   0.29990   Biso      1.000     H          0.12149700000000001           
         H8        1.0000    0.70280   0.36610   0.19400   Biso      1.000     H          0.119057  
         H9        1.0000    0.39250   0.63100   0.19040   Biso      1.000     H          0.11782999999999999           
         H10       1.0000    0.89250   0.13100   0.30960   Biso      1.000     H          0.11782999999999999           
         H11       1.0000    0.00530   0.22120   0.20010   Biso      1.000     H          0.12149700000000001           
         H12       1.0000    0.79720   0.13390   0.69400   Biso      1.000     H          0.119057  
         H13       1.0000    0.91390   0.22900   0.79910   Biso      1.000     H          0.11458299999999999           
         H14       1.0000    0.60750   0.36900   0.80960   Biso      1.000     H          0.11782999999999999           
         H15       1.0000    0.49470   0.27880   0.70010   Biso      1.000     H          0.12149700000000001           
         H16       1.0000    0.58610   0.27100   0.29910   Biso      1.000     H          0.11458299999999999           
         O1        1.0000    0.86560   0.92190   0.44020   Biso      1.000     O          -0.535574           
         O2        1.0000    0.05350   0.34230   0.08560   Biso      1.000     O          -0.6021   
         O3        1.0000    0.89570   0.43140   0.08550   Biso      1.000     O          -0.630219           
         O4        1.0000    0.70660   0.06560   0.41640   Biso      1.000     O          -0.582537           
         O5        1.0000    0.52680   0.13810   0.40770   Biso      1.000     O          -0.683708           
         O6        1.0000    0.79340   0.43440   0.91640   Biso      1.000     O          -0.582537           
         O7        1.0000    0.36560   0.42190   0.05980   Biso      1.000     O          -0.535574           
         O8        1.0000    0.97320   0.36190   0.90770   Biso      1.000     O          -0.683708           
         O9        1.0000    0.60430   0.06860   0.58550   Biso      1.000     O          -0.630219           
         O10       1.0000    0.10610   0.95530   0.43050   Biso      1.000     O          -0.5677   
         O11       1.0000    0.44650   0.15770   0.58560   Biso      1.000     O          -0.6021   
         O12       1.0000    0.60610   0.45530   0.06950   Biso      1.000     O          -0.5677   
         O13       1.0000    0.02680   0.63810   0.09230   Biso      1.000     O          -0.683708           
         O14       1.0000    0.13440   0.07810   0.55980   Biso      1.000     O          -0.535574           
         O15       1.0000    0.39570   0.93140   0.41450   Biso      1.000     O          -0.630219           
         O16       1.0000    0.55350   0.84230   0.41440   Biso      1.000     O          -0.6021   
         O17       1.0000    0.63440   0.57810   0.94020   Biso      1.000     O          -0.535574           
         O18       1.0000    0.39390   0.54470   0.93050   Biso      1.000     O          -0.5677   
         O19       1.0000    0.47320   0.86190   0.59230   Biso      1.000     O          -0.683707           
         O20       1.0000    0.29340   0.93440   0.58360   Biso      1.000     O          -0.582538           
         O21       1.0000    0.10430   0.56860   0.91450   Biso      1.000     O          -0.630219           
         O22       1.0000    0.94650   0.65770   0.91440   Biso      1.000     O          -0.6021   
         O23       1.0000    0.89390   0.04470   0.56950   Biso      1.000     O          -0.5677   
         O24       1.0000    0.20660   0.56560   0.08360   Biso      1.000     O          -0.582537           
         Y1        1.0000    0.32691   0.05258   0.48252   Biso      1.000     Y          1.820027  
         Y2        1.0000    0.17309   0.44742   0.98252   Biso      1.000     Y          1.820027  
         Y3        1.0000    0.67309   0.94742   0.51748   Biso      1.000     Y          1.820027  
         Y4        1.0000    0.82691   0.55258   0.01748   Biso      1.000     Y          1.820027 