
##########################################################################
#               Crystallographic Information Format file
#               Produced by PyCifRW module
#
#  This is a CIF file.  CIF has been adopted by the International
#  Union of Crystallography as the standard for data archiving and
#  transmission.
#
#  For information on this file format, follow the CIF links at
#  http://www.iucr.org
##########################################################################

data_image0

_cell_length_a                          10.83
_cell_length_b                          17.049
_cell_length_c                          17.293
_cell_angle_alpha                       90
_cell_angle_beta                        90
_cell_angle_gamma                       90
_symmetry_space_group_name_H-M          'P 1'
_symmetry_int_tables_number             1
loop_
  _symmetry_equiv_pos_as_xyz
         'x, y, z' 
loop_
  _atom_site_label
  _atom_site_occupancy
  _atom_site_fract_x
  _atom_site_fract_y
  _atom_site_fract_z
  _atom_site_thermal_displace_type
  _atom_site_B_iso_or_equiv
  _atom_site_type_symbol
  _atom_site_charge
         C1        1.0000    0.91910   0.13110   0.12960   Biso      1.000     C          0.567563  
         C2        1.0000    0.02070   0.11100   0.79350   Biso      1.000     C          -0.058936           
         C3        1.0000    0.14680   0.21530   0.85940   Biso      1.000     C          0.630768  
         C4        1.0000    0.23230   0.13380   0.75470   Biso      1.000     C          -0.10855699999999999          
         C5        1.0000    0.13100   0.15140   0.79990   Biso      1.000     C          -0.019665000000000002         
         C6        1.0000    0.91230   0.12520   0.84420   Biso      1.000     C          0.6273029999999999  
         C7        1.0000    0.01660   0.11870   0.18960   Biso      1.000     C          -0.05708200000000001          
         C8        1.0000    0.14920   0.23210   0.12930   Biso      1.000     C          0.629004  
         C9        1.0000    0.60040   0.52270   0.37730   Biso      1.000     C          0.605254  
         C10       1.0000    0.50400   0.43520   0.75370   Biso      1.000     C          -0.11623900000000001          
         C11       1.0000    0.51260   0.44530   0.26750   Biso      1.000     C          -0.108178           
         C12       1.0000    0.57530   0.50840   0.63910   Biso      1.000     C          0.646238  
         C13       1.0000    0.21870   0.15330   0.24090   Biso      1.000     C          -0.1191   
         C14       1.0000    0.72400   0.42000   0.30290   Biso      1.000     C          -0.084842           
         C15       1.0000    0.69870   0.40020   0.70000   Biso      1.000     C          -0.06852899999999999          
         C16       1.0000    0.59390   0.44730   0.69730   Biso      1.000     C          -0.048694           
         C17       1.0000    0.62420   0.32940   0.80910   Biso      1.000     C          -0.011422           
         C18       1.0000    0.71870   0.34670   0.75910   Biso      1.000     C          -0.11909600000000001          
         C19       1.0000    0.52070   0.38900   0.20650   Biso      1.000     C          -0.058936           
         C20       1.0000    0.64680   0.28470   0.14060   Biso      1.000     C          0.630768  
         C21       1.0000    0.73230   0.36620   0.24530   Biso      1.000     C          -0.10855  
         C22       1.0000    0.63100   0.34860   0.20010   Biso      1.000     C          -0.019665000000000002         
         C23       1.0000    0.41230   0.37480   0.15580   Biso      1.000     C          0.627304  
         C24       1.0000    0.51660   0.38130   0.81040   Biso      1.000     C          -0.057066           
         C25       1.0000    0.64920   0.26790   0.87070   Biso      1.000     C          0.629004  
         C26       1.0000    0.61010   0.46060   0.31210   Biso      1.000     C          -0.02512  
         C27       1.0000    0.89960   0.47730   0.87730   Biso      1.000     C          0.6052529999999999  
         C28       1.0000    0.12420   0.17060   0.19090   Biso      1.000     C          -0.011417           
         C29       1.0000    0.19870   0.09980   0.30000   Biso      1.000     C          -0.06852799999999999          
         C30       1.0000    0.39960   0.02270   0.12270   Biso      1.000     C          0.6052529999999999  
         C31       1.0000    0.49600   0.93520   0.74630   Biso      1.000     C          -0.11623900000000001          
         C32       1.0000    0.48740   0.94530   0.23250   Biso      1.000     C          -0.108178           
         C33       1.0000    0.42470   0.00840   0.86090   Biso      1.000     C          0.646238  
         C34       1.0000    0.27600   0.92000   0.19710   Biso      1.000     C          -0.084843           
         C35       1.0000    0.38990   0.96060   0.18790   Biso      1.000     C          -0.025119           
         C36       1.0000    0.30130   0.90020   0.80000   Biso      1.000     C          -0.06852899999999999          
         C37       1.0000    0.40610   0.94730   0.80270   Biso      1.000     C          -0.048694           
         C38       1.0000    0.37580   0.82940   0.69090   Biso      1.000     C          -0.011422           
         C39       1.0000    0.28130   0.84670   0.74090   Biso      1.000     C          -0.11909600000000001          
         C40       1.0000    0.58090   0.86890   0.62960   Biso      1.000     C          0.567562  
         C41       1.0000    0.09390   0.05270   0.30270   Biso      1.000     C          -0.048695999999999996         
         C42       1.0000    0.47930   0.88900   0.29350   Biso      1.000     C          -0.058936           
         C43       1.0000    0.26770   0.86620   0.25470   Biso      1.000     C          -0.10855  
         C44       1.0000    0.36900   0.84860   0.29990   Biso      1.000     C          -0.019666           
         C45       1.0000    0.58770   0.87480   0.34420   Biso      1.000     C          0.627304  
         C46       1.0000    0.48340   0.88130   0.68960   Biso      1.000     C          -0.057066           
         C47       1.0000    0.35080   0.76790   0.62930   Biso      1.000     C          0.629004  
         C48       1.0000    0.10040   0.97730   0.62270   Biso      1.000     C          0.605252  
         C49       1.0000    0.00400   0.06480   0.24630   Biso      1.000     C          -0.116223           
         C50       1.0000    0.01260   0.05470   0.73250   Biso      1.000     C          -0.108178           
         C51       1.0000    0.07530   0.99160   0.36090   Biso      1.000     C          0.646238  
         C52       1.0000    0.22400   0.08000   0.69710   Biso      1.000     C          -0.08483500000000001          
         C53       1.0000    0.11010   0.03940   0.68790   Biso      1.000     C          -0.025119           
         C54       1.0000    0.35320   0.78470   0.35940   Biso      1.000     C          0.630768  
         C55       1.0000    0.99600   0.56480   0.25370   Biso      1.000     C          -0.11623900000000001          
         C56       1.0000    0.41910   0.36890   0.87040   Biso      1.000     C          0.567562  
         C57       1.0000    0.92470   0.49160   0.13910   Biso      1.000     C          0.646238  
         C58       1.0000    0.98740   0.55470   0.76750   Biso      1.000     C          -0.108178           
         C59       1.0000    0.85080   0.73210   0.37070   Biso      1.000     C          0.629003  
         C60       1.0000    0.98340   0.61870   0.31040   Biso      1.000     C          -0.057066           
         C61       1.0000    0.86900   0.65140   0.70010   Biso      1.000     C          -0.01967  
         C62       1.0000    0.76770   0.63380   0.74530   Biso      1.000     C          -0.108554           
         C63       1.0000    0.85320   0.71530   0.64060   Biso      1.000     C          0.630768  
         C64       1.0000    0.97930   0.61100   0.70650   Biso      1.000     C          -0.058933000000000006         
         C65       1.0000    0.08770   0.62520   0.65580   Biso      1.000     C          0.6273029999999999  
         C66       1.0000    0.77600   0.58000   0.80290   Biso      1.000     C          -0.084836           
         C67       1.0000    0.78130   0.65330   0.25910   Biso      1.000     C          -0.1191   
         C68       1.0000    0.87580   0.67060   0.30910   Biso      1.000     C          -0.011419           
         C69       1.0000    0.90610   0.55270   0.19730   Biso      1.000     C          -0.048695999999999996         
         C70       1.0000    0.80130   0.59980   0.20000   Biso      1.000     C          -0.068526           
         C71       1.0000    0.88990   0.53940   0.81210   Biso      1.000     C          -0.025119           
         C72       1.0000    0.08090   0.63110   0.37040   Biso      1.000     C          0.567562  
         H1        1.0000    0.43860   0.47140   0.27630   Biso      1.000     H          0.14044500000000001           
         H2        1.0000    0.79070   0.43010   0.33530   Biso      1.000     H          0.126674  
         H3        1.0000    0.75720   0.40480   0.66090   Biso      1.000     H          0.11904300000000001           
         H4        1.0000    0.79540   0.32290   0.76480   Biso      1.000     H          0.133663  
         H5        1.0000    0.80700   0.34080   0.23620   Biso      1.000     H          0.13134200000000001           
         H6        1.0000    0.69300   0.65920   0.73620   Biso      1.000     H          0.13134300000000002           
         H7        1.0000    0.06140   0.52860   0.77630   Biso      1.000     H          0.14044600000000002           
         H8        1.0000    0.74280   0.59520   0.16090   Biso      1.000     H          0.11904200000000001           
         H9        1.0000    0.70460   0.67710   0.26480   Biso      1.000     H          0.133663  
         H10       1.0000    0.43260   0.46540   0.75220   Biso      1.000     H          0.128674  
         H11       1.0000    0.06740   0.53460   0.25220   Biso      1.000     H          0.128674  
         H12       1.0000    0.30700   0.15920   0.76380   Biso      1.000     H          0.13134300000000002           
         H13       1.0000    0.70930   0.56990   0.83530   Biso      1.000     H          0.126674  
         H14       1.0000    0.29540   0.17710   0.23520   Biso      1.000     H          0.133663  
         H15       1.0000    0.56740   0.96540   0.74780   Biso      1.000     H          0.128674  
         H16       1.0000    0.56140   0.97140   0.22370   Biso      1.000     H          0.14044600000000002           
         H17       1.0000    0.24280   0.90480   0.83910   Biso      1.000     H          0.11904300000000001           
         H18       1.0000    0.20460   0.82290   0.73520   Biso      1.000     H          0.133663  
         H19       1.0000    0.20930   0.93010   0.16470   Biso      1.000     H          0.126674  
         H20       1.0000    0.93260   0.03460   0.24780   Biso      1.000     H          0.128673  
         H21       1.0000    0.93860   0.02860   0.72370   Biso      1.000     H          0.14044500000000001           
         H22       1.0000    0.29070   0.06990   0.66470   Biso      1.000     H          0.126674  
         H23       1.0000    0.25720   0.09520   0.33910   Biso      1.000     H          0.11904300000000001           
         H24       1.0000    0.19300   0.84080   0.26380   Biso      1.000     H          0.13134200000000001           
         O1        1.0000    0.43030   0.17780   0.99590   Biso      1.000     O          -0.659939           
         O2        1.0000    0.19960   0.37570   0.99910   Biso      1.000     O          -0.726088           
         O3        1.0000    0.94080   0.17530   0.07650   Biso      1.000     O          -0.477256           
         O4        1.0000    0.18590   0.96400   0.57890   Biso      1.000     O          -0.5243180000000001           
         O5        1.0000    0.16580   0.97620   0.40750   Biso      1.000     O          -0.607857           
         O6        1.0000    0.23020   0.21430   0.08010   Biso      1.000     O          -0.5661510000000001           
         O7        1.0000    0.21700   0.20600   0.92000   Biso      1.000     O          -0.606012           
         O8        1.0000    0.59430   0.22140   0.15160   Biso      1.000     O          -0.506969           
         O9        1.0000    0.30840   0.40140   0.17330   Biso      1.000     O          -0.555976           
         O10       1.0000    0.49310   0.55640   0.37460   Biso      1.000     O          -0.514211           
         O11       1.0000    0.59870   0.20290   0.85930   Biso      1.000     O          -0.491609           
         O12       1.0000    0.83790   0.07760   0.12700   Biso      1.000     O          -0.367115           
         O13       1.0000    0.42900   0.33860   0.09390   Biso      1.000     O          -0.5705680000000001           
         O14       1.0000    0.33790   0.42240   0.87300   Biso      1.000     O          -0.367117           
         O15       1.0000    0.47710   0.54560   0.63790   Biso      1.000     O          -0.549546           
         O16       1.0000    0.92900   0.16140   0.90610   Biso      1.000     O          -0.5705680000000001           
         O17       1.0000    0.66210   0.92240   0.62700   Biso      1.000     O          -0.367114           
         O18       1.0000    0.50690   0.05640   0.12540   Biso      1.000     O          -0.514212           
         O19       1.0000    0.69960   0.12430   0.00090   Biso      1.000     O          -0.726088           
         O20       1.0000    0.99310   0.94360   0.62540   Biso      1.000     O          -0.514212           
         O21       1.0000    0.80840   0.09860   0.82670   Biso      1.000     O          -0.555976           
         O22       1.0000    0.97710   0.95440   0.36210   Biso      1.000     O          -0.549546           
         O23       1.0000    0.28300   0.79400   0.42000   Biso      1.000     O          -0.606013           
         O24       1.0000    0.06970   0.82220   0.49590   Biso      1.000     O          -0.659934           
         O25       1.0000    0.26980   0.78570   0.58010   Biso      1.000     O          -0.566149           
         O26       1.0000    0.33420   0.02380   0.90750   Biso      1.000     O          -0.607857           
         O27       1.0000    0.31410   0.03600   0.07890   Biso      1.000     O          -0.5243180000000001           
         O28       1.0000    0.55920   0.82470   0.57650   Biso      1.000     O          -0.477256           
         O29       1.0000    0.30040   0.62430   0.49910   Biso      1.000     O          -0.726086           
         O30       1.0000    0.09870   0.29710   0.14070   Biso      1.000     O          -0.491609           
         O31       1.0000    0.57100   0.83860   0.40610   Biso      1.000     O          -0.570567           
         O32       1.0000    0.40570   0.72140   0.34840   Biso      1.000     O          -0.506969           
         O33       1.0000    0.40130   0.70290   0.64070   Biso      1.000     O          -0.491609           
         O34       1.0000    0.09430   0.27860   0.84840   Biso      1.000     O          -0.506969           
         O35       1.0000    0.44080   0.32470   0.92350   Biso      1.000     O          -0.477257           
         O36       1.0000    0.52290   0.04560   0.86210   Biso      1.000     O          -0.549546           
         O37       1.0000    0.66580   0.52380   0.59250   Biso      1.000     O          -0.607857           
         O38       1.0000    0.69160   0.90140   0.32670   Biso      1.000     O          -0.555976           
         O39       1.0000    0.68590   0.53600   0.42110   Biso      1.000     O          -0.524317           
         O40       1.0000    0.56970   0.67780   0.50410   Biso      1.000     O          -0.659944           
         O41       1.0000    0.76980   0.71430   0.41990   Biso      1.000     O          -0.566149           
         O42       1.0000    0.83420   0.47620   0.09250   Biso      1.000     O          -0.607857           
         O43       1.0000    0.81410   0.46400   0.92110   Biso      1.000     O          -0.5243180000000001           
         O44       1.0000    0.05920   0.67530   0.42350   Biso      1.000     O          -0.477256           
         O45       1.0000    0.80040   0.87570   0.50090   Biso      1.000     O          -0.726089           
         O46       1.0000    0.16210   0.57760   0.37300   Biso      1.000     O          -0.367116           
         O47       1.0000    0.78300   0.70600   0.58000   Biso      1.000     O          -0.606012           
         O48       1.0000    0.90570   0.77860   0.65160   Biso      1.000     O          -0.506969           
         O49       1.0000    0.90130   0.79710   0.35930   Biso      1.000     O          -0.491608           
         O50       1.0000    0.00690   0.44360   0.87460   Biso      1.000     O          -0.514211           
         O51       1.0000    0.19160   0.59860   0.67330   Biso      1.000     O          -0.555977           
         O52       1.0000    0.02290   0.45440   0.13790   Biso      1.000     O          -0.549546           
         O53       1.0000    0.71700   0.29400   0.08000   Biso      1.000     O          -0.606012           
         O54       1.0000    0.93030   0.32220   0.00410   Biso      1.000     O          -0.659935           
         O55       1.0000    0.73020   0.28570   0.91990   Biso      1.000     O          -0.56615  
         O56       1.0000    0.07100   0.66140   0.59390   Biso      1.000     O          -0.5705680000000001           
         Zn1       1.0000    0.71365   0.60151   0.51127   Biso      1.000     Zn          1.060172  
         Zn2       1.0000    0.44309   0.64813   0.43190   Biso      1.000     Zn          0.978261  
         Zn3       1.0000    0.83081   0.90247   0.39254   Biso      1.000     Zn          1.010907  
         Zn4       1.0000    0.82429   0.21729   0.99535   Biso      1.000     Zn          1.0146389999999998  
         Zn5       1.0000    0.78635   0.39849   0.01127   Biso      1.000     Zn          1.060172  
         Zn6       1.0000    0.05691   0.35187   0.93190   Biso      1.000     Zn          0.97826   
         Zn7       1.0000    0.66919   0.09753   0.89254   Biso      1.000     Zn          1.010907  
         Zn8       1.0000    0.16919   0.40247   0.10746   Biso      1.000     Zn          1.010907  
         Zn9       1.0000    0.28635   0.10151   0.98873   Biso      1.000     Zn          1.060173  
         Zn10      1.0000    0.55691   0.14813   0.06810   Biso      1.000     Zn          0.978261  
         Zn11      1.0000    0.17571   0.71729   0.50465   Biso      1.000     Zn          1.01464   
         Zn12      1.0000    0.21365   0.89849   0.48873   Biso      1.000     Zn          1.060171  
         Zn13      1.0000    0.94309   0.85187   0.56810   Biso      1.000     Zn          0.97826   
         Zn14      1.0000    0.33081   0.59753   0.60746   Biso      1.000     Zn          1.010907  
         Zn15      1.0000    0.32429   0.28271   0.00465   Biso      1.000     Zn          1.01464   
         Zn16      1.0000    0.67571   0.78271   0.49535   Biso      1.000     Zn          1.0146389999999998 