
##########################################################################
#               Crystallographic Information Format file
#               Produced by PyCifRW module
#
#  This is a CIF file.  CIF has been adopted by the International
#  Union of Crystallography as the standard for data archiving and
#  transmission.
#
#  For information on this file format, follow the CIF links at
#  http://www.iucr.org
##########################################################################

data_image0

_cell_length_a                          12.4498
_cell_length_b                          13.8157
_cell_length_c                          14.579
_cell_angle_alpha                       71.093
_cell_angle_beta                        64.724
_cell_angle_gamma                       63.2199
_symmetry_space_group_name_H-M          'P 1'
_symmetry_int_tables_number             1
loop_
  _symmetry_equiv_pos_as_xyz
         'x, y, z' 
loop_
  _atom_site_label
  _atom_site_occupancy
  _atom_site_fract_x
  _atom_site_fract_y
  _atom_site_fract_z
  _atom_site_thermal_displace_type
  _atom_site_B_iso_or_equiv
  _atom_site_type_symbol
  _atom_site_charge
         C1        1.0000    0.03330   0.59200   0.47040   Biso      1.000     C          -0.08915  
         C2        1.0000    0.96670   0.40800   0.52960   Biso      1.000     C          -0.089167           
         C3        1.0000    0.53400   0.10500   0.05340   Biso      1.000     C          -0.082057           
         C4        1.0000    0.47540   0.02990   0.11130   Biso      1.000     C          -0.091206           
         C5        1.0000    0.95270   0.57000   0.56960   Biso      1.000     C          -0.088716           
         C6        1.0000    0.16360   0.79640   0.50500   Biso      1.000     C          0.625467  
         C7        1.0000    0.24500   0.71410   0.56870   Biso      1.000     C          -0.043067           
         C8        1.0000    0.33550   0.67210   0.69950   Biso      1.000     C          -0.085465           
         C9        1.0000    0.00810   0.95710   0.20490   Biso      1.000     C          0.615891  
         C10       1.0000    0.00340   0.97820   0.09880   Biso      1.000     C          -0.022505           
         C11       1.0000    0.35390   0.06390   0.18370   Biso      1.000     C          -0.020657           
         C12       1.0000    0.25900   0.74740   0.64140   Biso      1.000     C          -0.09199  
         C13       1.0000    0.39850   0.56390   0.68370   Biso      1.000     C          -0.025026           
         C14       1.0000    0.09570   0.90800   0.02960   Biso      1.000     C          -0.090264           
         C15       1.0000    0.30760   0.60500   0.55340   Biso      1.000     C          -0.080657           
         C16       1.0000    0.38340   0.52990   0.61130   Biso      1.000     C          -0.090199           
         C17       1.0000    0.90770   0.07000   0.06960   Biso      1.000     C          -0.087174           
         C18       1.0000    0.46500   0.70360   0.99500   Biso      1.000     C          0.624583  
         C19       1.0000    0.52780   0.78590   0.93130   Biso      1.000     C          -0.04043  
         C20       1.0000    0.70710   0.82790   0.80050   Biso      1.000     C          -0.08941  
         C21       1.0000    0.17010   0.54290   0.29510   Biso      1.000     C          0.6142310000000001  
         C22       1.0000    0.48950   0.48270   0.74230   Biso      1.000     C          0.615628  
         C23       1.0000    0.28550   0.98270   0.24230   Biso      1.000     C          0.6158680000000001  
         C24       1.0000    0.35220   0.24740   0.14140   Biso      1.000     C          -0.08972000000000001          
         C25       1.0000    0.91960   0.47820   0.59880   Biso      1.000     C          -0.023617           
         C26       1.0000    0.04730   0.43000   0.43040   Biso      1.000     C          -0.08853899999999999          
         C27       1.0000    0.52460   0.97010   0.88870   Biso      1.000     C          -0.090924           
         C28       1.0000    0.46600   0.89500   0.94660   Biso      1.000     C          -0.082195           
         C29       1.0000    0.64610   0.93610   0.81630   Biso      1.000     C          -0.020632           
         C30       1.0000    0.71450   0.01730   0.75770   Biso      1.000     C          0.615873  
         C31       1.0000    0.83640   0.20360   0.49500   Biso      1.000     C          0.6254609999999999  
         C32       1.0000    0.75500   0.28590   0.43130   Biso      1.000     C          -0.042916           
         C33       1.0000    0.66450   0.32790   0.30050   Biso      1.000     C          -0.085494           
         C34       1.0000    0.99190   0.04290   0.79510   Biso      1.000     C          0.6159020000000001  
         C35       1.0000    0.99660   0.02180   0.90120   Biso      1.000     C          -0.022537           
         C36       1.0000    0.74100   0.25260   0.35860   Biso      1.000     C          -0.09212100000000001          
         C37       1.0000    0.51050   0.51730   0.25770   Biso      1.000     C          0.615621  
         C38       1.0000    0.60150   0.43610   0.31630   Biso      1.000     C          -0.025019           
         C39       1.0000    0.90430   0.09200   0.97040   Biso      1.000     C          -0.090541           
         C40       1.0000    0.69240   0.39500   0.44660   Biso      1.000     C          -0.080677           
         C41       1.0000    0.61660   0.47010   0.38870   Biso      1.000     C          -0.09019400000000001          
         C42       1.0000    0.09230   0.93000   0.93040   Biso      1.000     C          -0.087478           
         C43       1.0000    0.53500   0.29640   0.00500   Biso      1.000     C          0.62461   
         C44       1.0000    0.47220   0.21410   0.06870   Biso      1.000     C          -0.040315           
         C45       1.0000    0.29290   0.17210   0.19950   Biso      1.000     C          -0.08945700000000001          
         C46       1.0000    0.82990   0.45710   0.70490   Biso      1.000     C          0.614228  
         C47       1.0000    0.08040   0.52180   0.40120   Biso      1.000     C          -0.023765           
         C48       1.0000    0.64780   0.75260   0.85860   Biso      1.000     C          -0.089531           
         Cd1       1.0000    0.98614   0.04625   0.61003   Biso      1.000     Cd          1.035225  
         Cd2       1.0000    0.71735   0.25000   0.75000   Biso      1.000     Cd          1.176134  
         Cd3       1.0000    0.64242   0.45375   0.88997   Biso      1.000     Cd          1.033779  
         Cd4       1.0000    0.01386   0.95375   0.38997   Biso      1.000     Cd          1.0352350000000001  
         Cd5       1.0000    0.28265   0.75000   0.25000   Biso      1.000     Cd          1.176182  
         Cd6       1.0000    0.35758   0.54625   0.11003   Biso      1.000     Cd          1.033767  
         H1        1.0000    0.36723   0.92223   0.00681   Biso      1.000     H          0.10376600000000001           
         H2        1.0000    0.79224   0.16325   0.34623   Biso      1.000     H          0.104848  
         H3        1.0000    0.82608   0.16733   0.94608   Biso      1.000     H          0.101324  
         H4        1.0000    0.70373   0.42223   0.50681   Biso      1.000     H          0.104751  
         H5        1.0000    0.56647   0.55975   0.40012   Biso      1.000     H          0.11009300000000001           
         H6        1.0000    0.16821   0.87254   0.87316   Biso      1.000     H          0.106805  
         H7        1.0000    0.19434   0.19955   0.25993   Biso      1.000     H          0.102728  
         H8        1.0000    0.30173   0.33675   0.15377   Biso      1.000     H          0.104456  
         H9        1.0000    0.93948   0.33267   0.55392   Biso      1.000     H          0.102379  
         H10       1.0000    0.63277   0.07777   0.99319   Biso      1.000     H          0.103772  
         H11       1.0000    0.52634   0.94025   0.09988   Biso      1.000     H          0.110338  
         H12       1.0000    0.65382   0.30045   0.24007   Biso      1.000     H          0.10273299999999999           
         H13       1.0000    0.20767   0.83678   0.65365   Biso      1.000     H          0.104815  
         H14       1.0000    0.17417   0.83254   0.05345   Biso      1.000     H          0.10118300000000001           
         H15       1.0000    0.29627   0.57777   0.49319   Biso      1.000     H          0.10473299999999999           
         H16       1.0000    0.43353   0.44025   0.59988   Biso      1.000     H          0.11009400000000001           
         H17       1.0000    0.83189   0.12736   0.12696   Biso      1.000     H          0.10684600000000001           
         H18       1.0000    0.80566   0.80045   0.74007   Biso      1.000     H          0.10273800000000001           
         H19       1.0000    0.69811   0.66322   0.84635   Biso      1.000     H          0.10434700000000001           
         H20       1.0000    0.06052   0.66733   0.44608   Biso      1.000     H          0.10235599999999999           
         H21       1.0000    0.91390   0.62746   0.62684   Biso      1.000     H          0.106678  
         H22       1.0000    0.34618   0.69955   0.75993   Biso      1.000     H          0.10271300000000001           
         H23       1.0000    0.08620   0.37264   0.37304   Biso      1.000     H          0.106584  
         H24       1.0000    0.47351   0.05971   0.90023   Biso      1.000     H          0.11018299999999999           
         O1        1.0000    0.21860   0.47420   0.23720   Biso      1.000     O          -0.537552           
         O2        1.0000    0.91319   0.11272   0.46630   Biso      1.000     O          -0.571712           
         O3        1.0000    0.82882   0.22686   0.57490   Biso      1.000     O          -0.597362           
         O4        1.0000    0.50790   0.48530   0.18810   Biso      1.000     O          -0.5821569999999999           
         O5        1.0000    0.90850   0.12700   0.76740   Biso      1.000     O          -0.6123970000000001           
         O6        1.0000    0.44500   0.61090   0.28490   Biso      1.000     O          -0.592957           
         O7        1.0000    0.07000   0.97420   0.73720   Biso      1.000     O          -0.536821           
         O8        1.0000    0.49221   0.38728   0.03370   Biso      1.000     O          -0.5713090000000001           
         O9        1.0000    0.63058   0.27314   0.92510   Biso      1.000     O          -0.597643           
         O10       1.0000    0.18130   0.01470   0.31190   Biso      1.000     O          -0.584715           
         O11       1.0000    0.65920   0.11090   0.78490   Biso      1.000     O          -0.592408           
         O12       1.0000    0.80290   0.37300   0.73260   Biso      1.000     O          -0.6090409999999999           
         O13       1.0000    0.78140   0.52580   0.76280   Biso      1.000     O          -0.53755  
         O14       1.0000    0.08681   0.88728   0.53370   Biso      1.000     O          -0.571713           
         O15       1.0000    0.17118   0.77314   0.42510   Biso      1.000     O          -0.597354           
         O16       1.0000    0.49210   0.51470   0.81190   Biso      1.000     O          -0.5821689999999999           
         O17       1.0000    0.09150   0.87300   0.23260   Biso      1.000     O          -0.612355           
         O18       1.0000    0.55500   0.38910   0.71510   Biso      1.000     O          -0.592942           
         O19       1.0000    0.93000   0.02580   0.26280   Biso      1.000     O          -0.53686  
         O20       1.0000    0.50779   0.61272   0.96630   Biso      1.000     O          -0.5713090000000001           
         O21       1.0000    0.36942   0.72686   0.07490   Biso      1.000     O          -0.597677           
         O22       1.0000    0.81870   0.98530   0.68810   Biso      1.000     O          -0.5847319999999999           
         O23       1.0000    0.34080   0.88910   0.21510   Biso      1.000     O          -0.592399           
         O24       1.0000    0.19710   0.62700   0.26740   Biso      1.000     O          -0.609001 