
##########################################################################
#               Crystallographic Information Format file
#               Produced by PyCifRW module
#
#  This is a CIF file.  CIF has been adopted by the International
#  Union of Crystallography as the standard for data archiving and
#  transmission.
#
#  For information on this file format, follow the CIF links at
#  http://www.iucr.org
##########################################################################

data_image0

_cell_length_a                          10.0327
_cell_length_b                          25.651
_cell_length_c                          9.5121
_cell_angle_alpha                       90
_cell_angle_beta                        90
_cell_angle_gamma                       90
_symmetry_space_group_name_H-M          'P 1'
_symmetry_int_tables_number             1
loop_
  _symmetry_equiv_pos_as_xyz
         'x, y, z' 
loop_
  _atom_site_label
  _atom_site_occupancy
  _atom_site_fract_x
  _atom_site_fract_y
  _atom_site_fract_z
  _atom_site_thermal_displace_type
  _atom_site_B_iso_or_equiv
  _atom_site_type_symbol
  _atom_site_charge
         C1        1.0000    0.83610   0.70370   0.99430   Biso      1.000     C          -0.106703           
         C2        1.0000    0.71460   0.70280   0.92790   Biso      1.000     C          -0.019446           
         C3        1.0000    0.23220   0.00230   0.83980   Biso      1.000     C          0.157869  
         C4        1.0000    0.64540   0.84850   0.89970   Biso      1.000     C          0.595593  
         C5        1.0000    0.71460   0.79720   0.92790   Biso      1.000     C          -0.019446           
         C6        1.0000    0.83610   0.79630   0.99430   Biso      1.000     C          -0.106705           
         C7        1.0000    0.36090   0.94920   0.74480   Biso      1.000     C          0.182963  
         C8        1.0000    0.16390   0.20370   0.00570   Biso      1.000     C          -0.106704           
         C9        1.0000    0.28540   0.20280   0.07210   Biso      1.000     C          -0.019447           
         C10       1.0000    0.35460   0.15150   0.10030   Biso      1.000     C          0.595591  
         C11       1.0000    0.63910   0.05080   0.25520   Biso      1.000     C          0.182962  
         C12       1.0000    0.26780   0.99770   0.33980   Biso      1.000     C          0.157869  
         C13       1.0000    0.86090   0.94920   0.75520   Biso      1.000     C          0.182964  
         C14       1.0000    0.76780   0.99770   0.16020   Biso      1.000     C          0.157869  
         C15       1.0000    0.78540   0.20280   0.42790   Biso      1.000     C          -0.019445           
         C16       1.0000    0.66390   0.20370   0.49430   Biso      1.000     C          -0.106705           
         C17       1.0000    0.13910   0.05080   0.24480   Biso      1.000     C          0.182963  
         C18       1.0000    0.66390   0.29630   0.49430   Biso      1.000     C          -0.106704           
         C19       1.0000    0.78540   0.29720   0.42790   Biso      1.000     C          -0.019446           
         C20       1.0000    0.85460   0.34850   0.39970   Biso      1.000     C          0.595592  
         C21       1.0000    0.76780   0.50230   0.16020   Biso      1.000     C          0.157868  
         C22       1.0000    0.86090   0.55080   0.75520   Biso      1.000     C          0.182964  
         C23       1.0000    0.73220   0.49770   0.66020   Biso      1.000     C          0.157869  
         C24       1.0000    0.63910   0.44920   0.25520   Biso      1.000     C          0.182964  
         C25       1.0000    0.64540   0.65150   0.89970   Biso      1.000     C          0.595592  
         C26       1.0000    0.85460   0.15150   0.39970   Biso      1.000     C          0.595592  
         C27       1.0000    0.14540   0.84850   0.60030   Biso      1.000     C          0.595592  
         C28       1.0000    0.73220   0.00230   0.66020   Biso      1.000     C          0.157869  
         C29       1.0000    0.33610   0.79630   0.50570   Biso      1.000     C          -0.106704           
         C30       1.0000    0.13910   0.44920   0.24480   Biso      1.000     C          0.182964  
         C31       1.0000    0.26780   0.50230   0.33980   Biso      1.000     C          0.157868  
         C32       1.0000    0.84560   0.25000   0.39150   Biso      1.000     C          -0.13305  
         C33       1.0000    0.35460   0.34850   0.10030   Biso      1.000     C          0.595593  
         C34       1.0000    0.28540   0.29720   0.07210   Biso      1.000     C          -0.019446           
         C35       1.0000    0.16390   0.29630   0.00570   Biso      1.000     C          -0.106705           
         C36       1.0000    0.89920   0.75000   0.02500   Biso      1.000     C          -0.082159           
         C37       1.0000    0.65440   0.75000   0.89150   Biso      1.000     C          -0.13305  
         C38       1.0000    0.21460   0.79720   0.57210   Biso      1.000     C          -0.019447           
         C39       1.0000    0.36090   0.55080   0.74480   Biso      1.000     C          0.182964  
         C40       1.0000    0.15440   0.75000   0.60850   Biso      1.000     C          -0.13305  
         C41       1.0000    0.39920   0.75000   0.47500   Biso      1.000     C          -0.08216  
         C42       1.0000    0.60080   0.25000   0.52500   Biso      1.000     C          -0.082158           
         C43       1.0000    0.14540   0.65150   0.60030   Biso      1.000     C          0.595592  
         C44       1.0000    0.34560   0.25000   0.10850   Biso      1.000     C          -0.13305  
         C45       1.0000    0.21460   0.70280   0.57210   Biso      1.000     C          -0.019446           
         C46       1.0000    0.10080   0.25000   0.97500   Biso      1.000     C          -0.082158           
         C47       1.0000    0.23220   0.49770   0.83980   Biso      1.000     C          0.157869  
         C48       1.0000    0.33610   0.70370   0.50570   Biso      1.000     C          -0.106703           
         H1        1.0000    0.37660   0.82760   0.48100   Biso      1.000     H          0.104162  
         H2        1.0000    0.92610   0.25000   0.34290   Biso      1.000     H          0.126746  
         H3        1.0000    0.15770   0.02250   0.86060   Biso      1.000     H          0.11075   
         H4        1.0000    0.60400   0.42450   0.31640   Biso      1.000     H          0.11657   
         H5        1.0000    0.42610   0.25000   0.15710   Biso      1.000     H          0.126745  
         H6        1.0000    0.84230   0.52250   0.13940   Biso      1.000     H          0.11075   
         H7        1.0000    0.01660   0.25000   0.93410   Biso      1.000     H          0.112597  
         H8        1.0000    0.57390   0.75000   0.84290   Biso      1.000     H          0.126746  
         H9        1.0000    0.39600   0.92450   0.68360   Biso      1.000     H          0.11657   
         H10       1.0000    0.48340   0.75000   0.43410   Biso      1.000     H          0.112597  
         H11       1.0000    0.10400   0.07550   0.18360   Biso      1.000     H          0.11657   
         H12       1.0000    0.07390   0.75000   0.65710   Biso      1.000     H          0.126746  
         H13       1.0000    0.12340   0.17240   0.98100   Biso      1.000     H          0.104162  
         H14       1.0000    0.34230   0.97750   0.36060   Biso      1.000     H          0.11075   
         H15       1.0000    0.62340   0.32760   0.51900   Biso      1.000     H          0.104162  
         H16       1.0000    0.98340   0.75000   0.06590   Biso      1.000     H          0.112597  
         H17       1.0000    0.51660   0.25000   0.56590   Biso      1.000     H          0.112597  
         H18       1.0000    0.84230   0.97750   0.13940   Biso      1.000     H          0.11075   
         H19       1.0000    0.60400   0.07550   0.31640   Biso      1.000     H          0.11657   
         H20       1.0000    0.62340   0.17240   0.51900   Biso      1.000     H          0.104162  
         H21       1.0000    0.39600   0.57550   0.68360   Biso      1.000     H          0.11657   
         H22       1.0000    0.87660   0.67240   0.01900   Biso      1.000     H          0.104162  
         H23       1.0000    0.15770   0.47750   0.86060   Biso      1.000     H          0.11075   
         H24       1.0000    0.87660   0.82760   0.01900   Biso      1.000     H          0.104162  
         H25       1.0000    0.65770   0.02250   0.63940   Biso      1.000     H          0.11075   
         H26       1.0000    0.37660   0.67240   0.48100   Biso      1.000     H          0.104162  
         H27       1.0000    0.89600   0.57550   0.81640   Biso      1.000     H          0.11657   
         H28       1.0000    0.65770   0.47750   0.63940   Biso      1.000     H          0.11075   
         H29       1.0000    0.12340   0.32760   0.98100   Biso      1.000     H          0.104162  
         H30       1.0000    0.34230   0.52250   0.36060   Biso      1.000     H          0.11075   
         H31       1.0000    0.10400   0.42450   0.18360   Biso      1.000     H          0.11657   
         H32       1.0000    0.89600   0.92450   0.81640   Biso      1.000     H          0.11657   
         N1        1.0000    0.73850   0.96910   0.76930   Biso      1.000     N          -0.297321           
         N2        1.0000    0.15680   0.99684   0.41400   Biso      1.000     N          -0.188345           
         N3        1.0000    0.07380   0.03260   0.35100   Biso      1.000     N          -0.180546           
         N4        1.0000    0.26150   0.03090   0.23070   Biso      1.000     N          -0.297321           
         N5        1.0000    0.92620   0.96740   0.64900   Biso      1.000     N          -0.180555           
         N6        1.0000    0.84320   0.00316   0.58600   Biso      1.000     N          -0.188337           
         N7        1.0000    0.34320   0.00316   0.91400   Biso      1.000     N          -0.188345           
         N8        1.0000    0.23850   0.53090   0.73070   Biso      1.000     N          -0.297321           
         N9        1.0000    0.42620   0.96740   0.85100   Biso      1.000     N          -0.180546           
         N10       1.0000    0.42620   0.53260   0.85100   Biso      1.000     N          -0.180555           
         N11       1.0000    0.73850   0.53090   0.76930   Biso      1.000     N          -0.297322           
         N12       1.0000    0.65680   0.99684   0.08600   Biso      1.000     N          -0.188345           
         N13       1.0000    0.92620   0.53260   0.64900   Biso      1.000     N          -0.180554           
         N14       1.0000    0.84320   0.49684   0.58600   Biso      1.000     N          -0.188337           
         N15       1.0000    0.26150   0.46910   0.23070   Biso      1.000     N          -0.297321           
         N16       1.0000    0.07380   0.46740   0.35100   Biso      1.000     N          -0.180555           
         N17       1.0000    0.15680   0.50316   0.41400   Biso      1.000     N          -0.188336           
         N18       1.0000    0.34320   0.49684   0.91400   Biso      1.000     N          -0.188337           
         N19       1.0000    0.23850   0.96910   0.73070   Biso      1.000     N          -0.297322           
         N20       1.0000    0.57380   0.03260   0.14900   Biso      1.000     N          -0.180546           
         N21       1.0000    0.76150   0.03090   0.26930   Biso      1.000     N          -0.297321           
         N22       1.0000    0.76150   0.46910   0.26930   Biso      1.000     N          -0.297321           
         N23       1.0000    0.57380   0.46740   0.14900   Biso      1.000     N          -0.180555           
         N24       1.0000    0.65680   0.50316   0.08600   Biso      1.000     N          -0.188337           
         O1        1.0000    0.17670   0.88481   0.51780   Biso      1.000     O          -0.576702           
         O2        1.0000    0.32330   0.38481   0.01780   Biso      1.000     O          -0.576702           
         O3        1.0000    0.06700   0.85320   0.69850   Biso      1.000     O          -0.581774           
         O4        1.0000    0.43300   0.35320   0.19850   Biso      1.000     O          -0.581775           
         O5        1.0000    0.32330   0.11519   0.01780   Biso      1.000     O          -0.576702           
         O6        1.0000    0.06700   0.64680   0.69850   Biso      1.000     O          -0.581774           
         O7        1.0000    0.67670   0.61519   0.98220   Biso      1.000     O          -0.576702           
         O8        1.0000    0.56700   0.64680   0.80150   Biso      1.000     O          -0.581774           
         O9        1.0000    0.93300   0.14680   0.30150   Biso      1.000     O          -0.581774           
         O10       1.0000    0.82330   0.11519   0.48220   Biso      1.000     O          -0.576702           
         O11       1.0000    0.82330   0.38481   0.48220   Biso      1.000     O          -0.576702           
         O12       1.0000    0.17670   0.61519   0.51780   Biso      1.000     O          -0.576702           
         O13       1.0000    0.93300   0.35320   0.30150   Biso      1.000     O          -0.581775           
         O14       1.0000    0.56700   0.85320   0.80150   Biso      1.000     O          -0.581775           
         O15       1.0000    0.67670   0.88481   0.98220   Biso      1.000     O          -0.576702           
         O16       1.0000    0.43300   0.14680   0.19850   Biso      1.000     O          -0.581774           
         Zn1       1.0000    0.10755   0.54814   0.57823   Biso      1.000     Zn          0.670866  
         Zn2       1.0000    0.89245   0.04814   0.42177   Biso      1.000     Zn          0.670865  
         Zn3       1.0000    0.60755   0.54814   0.92177   Biso      1.000     Zn          0.670866  
         Zn4       1.0000    0.89245   0.45186   0.42177   Biso      1.000     Zn          0.670865  
         Zn5       1.0000    0.10755   0.95186   0.57823   Biso      1.000     Zn          0.670867  
         Zn6       1.0000    0.60755   0.95186   0.92177   Biso      1.000     Zn          0.670865  
         Zn7       1.0000    0.39245   0.04814   0.07823   Biso      1.000     Zn          0.670866  
         Zn8       1.0000    0.39245   0.45186   0.07823   Biso      1.000     Zn          0.670866 