
##########################################################################
#               Crystallographic Information Format file
#               Produced by PyCifRW module
#
#  This is a CIF file.  CIF has been adopted by the International
#  Union of Crystallography as the standard for data archiving and
#  transmission.
#
#  For information on this file format, follow the CIF links at
#  http://www.iucr.org
##########################################################################

data_image0

_cell_length_a                          6.0915
_cell_length_b                          9.961
_cell_length_c                          13.361
_cell_angle_alpha                       68.87
_cell_angle_beta                        81.01
_cell_angle_gamma                       76.72
_symmetry_space_group_name_H-M          'P 1'
_symmetry_int_tables_number             1
loop_
  _symmetry_equiv_pos_as_xyz
         'x, y, z' 
loop_
  _atom_site_label
  _atom_site_occupancy
  _atom_site_fract_x
  _atom_site_fract_y
  _atom_site_fract_z
  _atom_site_thermal_displace_type
  _atom_site_B_iso_or_equiv
  _atom_site_type_symbol
  _atom_site_charge
         C1        1.0000    0.44980   0.38270   0.43960   Biso      1.000     C          0.528792  
         C2        1.0000    0.59110   0.43950   0.03350   Biso      1.000     C          0.482609  
         C3        1.0000    0.88500   0.60140   0.42170   Biso      1.000     C          0.056055  
         C4        1.0000    0.21140   0.44480   0.47260   Biso      1.000     C          0.077089  
         C5        1.0000    0.30880   0.97110   0.98510   Biso      1.000     C          0.058811  
         C6        1.0000    0.63310   0.89550   0.06860   Biso      1.000     C          0.068763  
         C7        1.0000    0.78930   0.76720   0.14180   Biso      1.000     C          0.558242  
         C8        1.0000    0.40890   0.56050   0.96650   Biso      1.000     C          0.482581  
         C9        1.0000    0.11500   0.39860   0.57830   Biso      1.000     C          0.056055  
         C10       1.0000    0.78860   0.55520   0.52740   Biso      1.000     C          0.077079  
         C11       1.0000    0.21070   0.23280   0.85820   Biso      1.000     C          0.558239  
         C12       1.0000    0.36690   0.10450   0.93140   Biso      1.000     C          0.068786  
         C13       1.0000    0.69120   0.02890   0.01490   Biso      1.000     C          0.058819  
         C14       1.0000    0.55020   0.61730   0.56040   Biso      1.000     C          0.528808  
         Eu1       1.0000    0.66828   0.38562   0.80391   Biso      1.000     Eu          1.20485   
         Eu2       1.0000    0.33172   0.61438   0.19609   Biso      1.000     Eu          1.204996  
         H1        1.0000    0.98980   0.50110   0.23120   Biso      1.000     H          0.445097  
         H2        1.0000    0.79810   0.67350   0.36920   Biso      1.000     H          0.110068  
         H3        1.0000    0.17230   0.95480   0.97320   Biso      1.000     H          0.107638  
         H4        1.0000    0.91800   0.57910   0.83680   Biso      1.000     H          0.46094   
         H5        1.0000    0.01020   0.49890   0.76880   Biso      1.000     H          0.445077  
         H6        1.0000    0.08200   0.42090   0.16320   Biso      1.000     H          0.460961  
         H7        1.0000    0.20190   0.32650   0.63080   Biso      1.000     H          0.11006   
         H8        1.0000    0.82770   0.04520   0.02680   Biso      1.000     H          0.107635  
         N1        1.0000    0.09380   0.54670   0.39350   Biso      1.000     N          -0.19363  
         N2        1.0000    0.43910   0.86480   0.05320   Biso      1.000     N          -0.219842           
         N3        1.0000    0.56090   0.13520   0.94680   Biso      1.000     N          -0.21988  
         N4        1.0000    0.90620   0.45330   0.60650   Biso      1.000     N          -0.193597           
         O1        1.0000    0.71480   0.64840   0.18490   Biso      1.000     O          -0.590137           
         O2        1.0000    0.72450   0.36270   0.98650   Biso      1.000     O          -0.477848           
         O3        1.0000    0.56790   0.29010   0.51020   Biso      1.000     O          -0.37275  
         O4        1.0000    0.51360   0.43100   0.34270   Biso      1.000     O          -0.468556           
         O5        1.0000    0.97950   0.78440   0.15230   Biso      1.000     O          -0.569111           
         O6        1.0000    0.90710   0.56590   0.77910   Biso      1.000     O          -0.874209           
         O7        1.0000    0.28520   0.35160   0.81510   Biso      1.000     O          -0.58999  
         O8        1.0000    0.27550   0.63730   0.01350   Biso      1.000     O          -0.477873           
         O9        1.0000    0.43210   0.70990   0.48980   Biso      1.000     O          -0.372902           
         O10       1.0000    0.48640   0.56900   0.65730   Biso      1.000     O          -0.468713           
         O11       1.0000    0.02050   0.21560   0.84770   Biso      1.000     O          -0.569104           
         O12       1.0000    0.58490   0.43070   0.12930   Biso      1.000     O          -0.392853           
         O13       1.0000    0.41510   0.56930   0.87070   Biso      1.000     O          -0.392804           
         O14       1.0000    0.09290   0.43410   0.22090   Biso      1.000     O          -0.874251 