
##########################################################################
#               Crystallographic Information Format file
#               Produced by PyCifRW module
#
#  This is a CIF file.  CIF has been adopted by the International
#  Union of Crystallography as the standard for data archiving and
#  transmission.
#
#  For information on this file format, follow the CIF links at
#  http://www.iucr.org
##########################################################################

data_image0

_cell_length_a                          14.116
_cell_length_b                          26.839
_cell_length_c                          7.642
_cell_angle_alpha                       90
_cell_angle_beta                        90
_cell_angle_gamma                       90.19
_symmetry_space_group_name_H-M          'P 1'
_symmetry_int_tables_number             1
loop_
  _symmetry_equiv_pos_as_xyz
         'x, y, z' 
loop_
  _atom_site_label
  _atom_site_occupancy
  _atom_site_fract_x
  _atom_site_fract_y
  _atom_site_fract_z
  _atom_site_thermal_displace_type
  _atom_site_B_iso_or_equiv
  _atom_site_type_symbol
  _atom_site_charge
         C1        1.0000    0.24800   0.95220   0.55400   Biso      1.000     C          0.084521  
         C2        1.0000    0.74800   0.95220   0.44600   Biso      1.000     C          0.084528  
         C3        1.0000    0.74200   0.95130   0.79300   Biso      1.000     C          0.07748   
         C4        1.0000    0.96500   0.14800   0.33100   Biso      1.000     C          0.183999  
         C5        1.0000    0.91700   0.18900   0.37800   Biso      1.000     C          0.125642  
         C6        1.0000    0.07900   0.19910   0.83200   Biso      1.000     C          0.062182  
         C7        1.0000    0.89100   0.21790   0.84700   Biso      1.000     C          0.095984  
         C8        1.0000    0.75200   0.04780   0.44600   Biso      1.000     C          0.084504  
         C9        1.0000    0.24200   0.95130   0.20700   Biso      1.000     C          0.077472  
         C10       1.0000    0.60900   0.28210   0.34700   Biso      1.000     C          0.095993  
         C11       1.0000    0.10900   0.78210   0.15300   Biso      1.000     C          0.095982  
         C12       1.0000    0.92100   0.80090   0.16800   Biso      1.000     C          0.062171  
         C13       1.0000    0.08300   0.81100   0.62200   Biso      1.000     C          0.12561   
         C14       1.0000    0.03500   0.85200   0.66900   Biso      1.000     C          0.184109  
         C15       1.0000    0.42100   0.30090   0.33200   Biso      1.000     C          0.062183  
         C16       1.0000    0.75800   0.04870   0.79300   Biso      1.000     C          0.07746   
         C17       1.0000    0.58300   0.31100   0.87800   Biso      1.000     C          0.125617  
         C18       1.0000    0.53500   0.35200   0.83100   Biso      1.000     C          0.184097  
         C19       1.0000    0.03500   0.35200   0.16900   Biso      1.000     C          0.184103  
         C20       1.0000    0.24200   0.45130   0.70700   Biso      1.000     C          0.07745   
         C21       1.0000    0.24800   0.45220   0.05400   Biso      1.000     C          0.084494  
         C22       1.0000    0.10900   0.28210   0.65300   Biso      1.000     C          0.095995  
         C23       1.0000    0.92100   0.30090   0.66800   Biso      1.000     C          0.06217   
         C24       1.0000    0.41700   0.68900   0.12200   Biso      1.000     C          0.125629  
         C25       1.0000    0.46500   0.64800   0.16900   Biso      1.000     C          0.184127  
         C26       1.0000    0.39100   0.71790   0.65300   Biso      1.000     C          0.095996  
         C27       1.0000    0.96500   0.64800   0.83100   Biso      1.000     C          0.184068  
         C28       1.0000    0.91700   0.68900   0.87800   Biso      1.000     C          0.125639  
         C29       1.0000    0.07900   0.69910   0.33200   Biso      1.000     C          0.062182  
         C30       1.0000    0.89100   0.71790   0.34700   Biso      1.000     C          0.095983  
         C31       1.0000    0.75200   0.54780   0.94600   Biso      1.000     C          0.0845    
         C32       1.0000    0.75800   0.54870   0.29300   Biso      1.000     C          0.07745   
         C33       1.0000    0.25800   0.04870   0.20700   Biso      1.000     C          0.07747   
         C34       1.0000    0.25200   0.04780   0.55400   Biso      1.000     C          0.084518  
         C35       1.0000    0.39100   0.21790   0.15300   Biso      1.000     C          0.095985  
         C36       1.0000    0.57900   0.69910   0.66800   Biso      1.000     C          0.062156  
         C37       1.0000    0.57900   0.19910   0.16800   Biso      1.000     C          0.062165  
         C38       1.0000    0.46500   0.14800   0.66900   Biso      1.000     C          0.184096  
         C39       1.0000    0.74200   0.45130   0.29300   Biso      1.000     C          0.07745   
         C40       1.0000    0.74800   0.45220   0.94600   Biso      1.000     C          0.0845    
         C41       1.0000    0.53500   0.85200   0.33100   Biso      1.000     C          0.184079  
         C42       1.0000    0.58300   0.81100   0.37800   Biso      1.000     C          0.125637  
         C43       1.0000    0.42100   0.80090   0.83200   Biso      1.000     C          0.062163  
         C44       1.0000    0.60900   0.78210   0.84700   Biso      1.000     C          0.095988  
         C45       1.0000    0.25800   0.54870   0.70700   Biso      1.000     C          0.077457  
         C46       1.0000    0.25200   0.54780   0.05400   Biso      1.000     C          0.084504  
         C47       1.0000    0.41700   0.18900   0.62200   Biso      1.000     C          0.12563   
         C48       1.0000    0.08300   0.31100   0.12200   Biso      1.000     C          0.12565   
         Cd1       1.0000    0.72020   0.36482   0.61480   Biso      1.000     Cd          1.00252   
         Cd2       1.0000    0.77980   0.13518   0.11480   Biso      1.000     Cd          1.002541  
         Cd3       1.0000    0.72020   0.86482   0.11480   Biso      1.000     Cd          1.002523  
         Cd4       1.0000    0.27980   0.13518   0.88520   Biso      1.000     Cd          1.002514  
         Cd5       1.0000    0.22020   0.86482   0.88520   Biso      1.000     Cd          1.002513  
         Cd6       1.0000    0.27980   0.63518   0.38520   Biso      1.000     Cd          1.002535  
         Cd7       1.0000    0.22020   0.36482   0.38520   Biso      1.000     Cd          1.002535  
         Cd8       1.0000    0.77980   0.63518   0.61480   Biso      1.000     Cd          1.002513  
         N1        1.0000    0.94600   0.62620   0.66900   Biso      1.000     N          -0.167918           
         N2        1.0000    0.82100   0.69370   0.84400   Biso      1.000     N          -0.166882           
         N3        1.0000    0.13100   0.66870   0.38000   Biso      1.000     N          -0.357894           
         N4        1.0000    0.83600   0.69970   0.41500   Biso      1.000     N          -0.348259           
         N5        1.0000    0.75700   0.58080   0.83900   Biso      1.000     N          -0.380496           
         N6        1.0000    0.83600   0.19970   0.91500   Biso      1.000     N          -0.348262           
         N7        1.0000    0.75700   0.08080   0.33900   Biso      1.000     N          -0.380468           
         N8        1.0000    0.55400   0.37380   0.66900   Biso      1.000     N          -0.167924           
         N9        1.0000    0.94600   0.12620   0.16900   Biso      1.000     N          -0.167993           
         N10       1.0000    0.82100   0.19370   0.34400   Biso      1.000     N          -0.166978           
         N11       1.0000    0.13100   0.16870   0.88000   Biso      1.000     N          -0.357866           
         N12       1.0000    0.76600   0.08240   0.89600   Biso      1.000     N          -0.365474           
         N13       1.0000    0.76600   0.58240   0.39600   Biso      1.000     N          -0.365495           
         N14       1.0000    0.67900   0.30630   0.84400   Biso      1.000     N          -0.16686  
         N15       1.0000    0.66400   0.80030   0.91500   Biso      1.000     N          -0.348248           
         N16       1.0000    0.66400   0.30030   0.41500   Biso      1.000     N          -0.348249           
         N17       1.0000    0.24300   0.91920   0.66100   Biso      1.000     N          -0.380489           
         N18       1.0000    0.36900   0.33130   0.38000   Biso      1.000     N          -0.357896           
         N19       1.0000    0.44600   0.62620   0.33100   Biso      1.000     N          -0.167907           
         N20       1.0000    0.32100   0.69370   0.15600   Biso      1.000     N          -0.166876           
         N21       1.0000    0.63100   0.66870   0.62000   Biso      1.000     N          -0.357866           
         N22       1.0000    0.33600   0.69970   0.58500   Biso      1.000     N          -0.348265           
         N23       1.0000    0.16400   0.80030   0.08500   Biso      1.000     N          -0.348259           
         N24       1.0000    0.25700   0.58080   0.16100   Biso      1.000     N          -0.380447           
         N25       1.0000    0.44600   0.12620   0.83100   Biso      1.000     N          -0.167903           
         N26       1.0000    0.32100   0.19370   0.65600   Biso      1.000     N          -0.166878           
         N27       1.0000    0.63100   0.16870   0.12000   Biso      1.000     N          -0.357852           
         N28       1.0000    0.33600   0.19970   0.08500   Biso      1.000     N          -0.348254           
         N29       1.0000    0.25700   0.08080   0.66100   Biso      1.000     N          -0.380471           
         N30       1.0000    0.26600   0.08240   0.10400   Biso      1.000     N          -0.365469           
         N31       1.0000    0.26600   0.58240   0.60400   Biso      1.000     N          -0.36544  
         N32       1.0000    0.86900   0.83130   0.12000   Biso      1.000     N          -0.357852           
         N33       1.0000    0.23400   0.91760   0.10400   Biso      1.000     N          -0.36549  
         N34       1.0000    0.05400   0.87380   0.83100   Biso      1.000     N          -0.167889           
         N35       1.0000    0.74300   0.41920   0.83900   Biso      1.000     N          -0.380482           
         N36       1.0000    0.73400   0.41760   0.39600   Biso      1.000     N          -0.36548  
         N37       1.0000    0.55400   0.87380   0.16900   Biso      1.000     N          -0.16789  
         N38       1.0000    0.17900   0.80630   0.65600   Biso      1.000     N          -0.166901           
         N39       1.0000    0.36900   0.83130   0.88000   Biso      1.000     N          -0.357848           
         N40       1.0000    0.74300   0.91920   0.33900   Biso      1.000     N          -0.380498           
         N41       1.0000    0.67900   0.80630   0.34400   Biso      1.000     N          -0.166885           
         N42       1.0000    0.05400   0.37380   0.33100   Biso      1.000     N          -0.167915           
         N43       1.0000    0.17900   0.30630   0.15600   Biso      1.000     N          -0.166909           
         N44       1.0000    0.86900   0.33130   0.62000   Biso      1.000     N          -0.357895           
         N45       1.0000    0.16400   0.30030   0.58500   Biso      1.000     N          -0.348285           
         N46       1.0000    0.24300   0.41920   0.16100   Biso      1.000     N          -0.380433           
         N47       1.0000    0.23400   0.41760   0.60400   Biso      1.000     N          -0.365423           
         N48       1.0000    0.73400   0.91760   0.89600   Biso      1.000     N          -0.3655   
         Ni1       1.0000    0.50000   0.75000   0.75000   Biso      1.000     Ni          0.125782  
         Ni2       1.0000    0.25000   0.00000   0.37990   Biso      1.000     Ni          0.183205  
         Ni3       1.0000    0.25000   0.50000   0.87990   Biso      1.000     Ni          0.183404  
         Ni4       1.0000    0.75000   0.00000   0.62010   Biso      1.000     Ni          0.183207  
         Ni5       1.0000    0.75000   0.50000   0.12010   Biso      1.000     Ni          0.183225  
         Ni6       1.0000    0.50000   0.25000   0.25000   Biso      1.000     Ni          0.125778  
         Ni7       1.0000    0.00000   0.75000   0.25000   Biso      1.000     Ni          0.125767  
         Ni8       1.0000    0.00000   0.25000   0.75000   Biso      1.000     Ni          0.12578 