
##########################################################################
#               Crystallographic Information Format file
#               Produced by PyCifRW module
#
#  This is a CIF file.  CIF has been adopted by the International
#  Union of Crystallography as the standard for data archiving and
#  transmission.
#
#  For information on this file format, follow the CIF links at
#  http://www.iucr.org
##########################################################################

data_image0

_cell_length_a                          6.9082
_cell_length_b                          18.426
_cell_length_c                          18.583
_cell_angle_alpha                       111.98
_cell_angle_beta                        90
_cell_angle_gamma                       90
_symmetry_space_group_name_H-M          'P 1'
_symmetry_int_tables_number             1
loop_
  _symmetry_equiv_pos_as_xyz
         'x, y, z' 
loop_
  _atom_site_label
  _atom_site_occupancy
  _atom_site_fract_x
  _atom_site_fract_y
  _atom_site_fract_z
  _atom_site_thermal_displace_type
  _atom_site_B_iso_or_equiv
  _atom_site_type_symbol
  _atom_site_charge
         C1        1.0000    0.14610   0.50960   0.82233   Biso      1.000     C          0.563198  
         C2        1.0000    0.34940   0.31935   0.70511   Biso      1.000     C          0.117433  
         C3        1.0000    0.20820   0.55086   0.36836   Biso      1.000     C          0.571608  
         C4        1.0000    0.37190   0.50797   0.08959   Biso      1.000     C          0.6918880000000001  
         C5        1.0000    0.46400   0.30319   0.20964   Biso      1.000     C          0.624491  
         C6        1.0000    0.28460   0.50357   0.28859   Biso      1.000     C          0.142753  
         C7        1.0000    0.30290   0.53246   0.22948   Biso      1.000     C          -0.14065  
         C8        1.0000    0.37100   0.48176   0.15774   Biso      1.000     C          0.030768  
         C9        1.0000    0.41050   0.38355   0.21147   Biso      1.000     C          0.154765  
         C10       1.0000    0.35880   0.31717   0.62931   Biso      1.000     C          -0.134262           
         C11       1.0000    0.35390   0.00960   0.32233   Biso      1.000     C          0.563199  
         C12       1.0000    0.08540   0.75231   0.22805   Biso      1.000     C          0.658518  
         C13       1.0000    0.27580   0.94461   0.25073   Biso      1.000     C          0.134304  
         C14       1.0000    0.26400   0.94856   0.17751   Biso      1.000     C          -0.13675  
         C15       1.0000    0.19770   0.88335   0.11614   Biso      1.000     C          0.070872  
         C16       1.0000    0.14120   0.81717   0.12931   Biso      1.000     C          -0.13426  
         C17       1.0000    0.15060   0.81935   0.20511   Biso      1.000     C          0.117432  
         C18       1.0000    0.29180   0.05086   0.86836   Biso      1.000     C          0.571608  
         C19       1.0000    0.12810   0.00797   0.58959   Biso      1.000     C          0.6918880000000001  
         C20       1.0000    0.19620   0.88312   0.03467   Biso      1.000     C          0.587171  
         C21       1.0000    0.03600   0.80319   0.70964   Biso      1.000     C          0.624491  
         C22       1.0000    0.30230   0.38335   0.61614   Biso      1.000     C          0.070873  
         C23       1.0000    0.22420   0.44461   0.75073   Biso      1.000     C          0.134304  
         C24       1.0000    0.64610   0.99040   0.67767   Biso      1.000     C          0.563199  
         C25       1.0000    0.80380   0.11688   0.96533   Biso      1.000     C          0.587171  
         C26       1.0000    0.91460   0.24769   0.77195   Biso      1.000     C          0.658518  
         C27       1.0000    0.72420   0.05539   0.74927   Biso      1.000     C          0.134304  
         C28       1.0000    0.73600   0.05144   0.82249   Biso      1.000     C          -0.13675  
         C29       1.0000    0.80230   0.11665   0.88386   Biso      1.000     C          0.070872  
         C30       1.0000    0.85880   0.18283   0.87069   Biso      1.000     C          -0.13426  
         C31       1.0000    0.84940   0.18065   0.79489   Biso      1.000     C          0.117432  
         C32       1.0000    0.23600   0.44856   0.67751   Biso      1.000     C          -0.13675  
         C33       1.0000    0.70820   0.94914   0.13164   Biso      1.000     C          0.571608  
         C34       1.0000    0.96400   0.19681   0.29036   Biso      1.000     C          0.624491  
         C35       1.0000    0.78460   0.99643   0.21141   Biso      1.000     C          0.142753  
         C36       1.0000    0.80290   0.96754   0.27052   Biso      1.000     C          -0.14065  
         C37       1.0000    0.87100   0.01824   0.34226   Biso      1.000     C          0.030768  
         C38       1.0000    0.93230   0.09306   0.35123   Biso      1.000     C          -0.133188           
         C39       1.0000    0.91050   0.11645   0.28853   Biso      1.000     C          0.154765  
         C40       1.0000    0.30380   0.38312   0.53467   Biso      1.000     C          0.587171  
         C41       1.0000    0.41460   0.25231   0.72805   Biso      1.000     C          0.658518  
         C42       1.0000    0.87190   0.99203   0.41041   Biso      1.000     C          0.6918880000000001  
         C43       1.0000    0.21540   0.00357   0.78859   Biso      1.000     C          0.142752  
         C44       1.0000    0.43230   0.40694   0.14877   Biso      1.000     C          -0.133188           
         C45       1.0000    0.12900   0.98176   0.65774   Biso      1.000     C          0.030766  
         C46       1.0000    0.19710   0.03246   0.72948   Biso      1.000     C          -0.140649           
         C47       1.0000    0.58950   0.61645   0.78853   Biso      1.000     C          0.154765  
         C48       1.0000    0.56770   0.59306   0.85123   Biso      1.000     C          -0.133188           
         C49       1.0000    0.62900   0.51824   0.84226   Biso      1.000     C          0.030766  
         C50       1.0000    0.69710   0.46754   0.77052   Biso      1.000     C          -0.140649           
         C51       1.0000    0.71540   0.49643   0.71141   Biso      1.000     C          0.142753  
         C52       1.0000    0.53600   0.69681   0.79036   Biso      1.000     C          0.624491  
         C53       1.0000    0.62810   0.49203   0.91041   Biso      1.000     C          0.6918880000000001  
         C54       1.0000    0.65060   0.68065   0.29489   Biso      1.000     C          0.117432  
         C55       1.0000    0.79180   0.44914   0.63164   Biso      1.000     C          0.571607  
         C56       1.0000    0.69770   0.61665   0.38386   Biso      1.000     C          0.070871  
         C57       1.0000    0.76400   0.55144   0.32249   Biso      1.000     C          -0.13675  
         C58       1.0000    0.77580   0.55539   0.24927   Biso      1.000     C          0.134305  
         C59       1.0000    0.58540   0.74769   0.27195   Biso      1.000     C          0.658518  
         C60       1.0000    0.69620   0.61688   0.46533   Biso      1.000     C          0.587171  
         C61       1.0000    0.85390   0.49040   0.17767   Biso      1.000     C          0.563198  
         C62       1.0000    0.08950   0.88355   0.71147   Biso      1.000     C          0.154765  
         C63       1.0000    0.06770   0.90694   0.64877   Biso      1.000     C          -0.133188           
         C64       1.0000    0.64120   0.68283   0.37069   Biso      1.000     C          -0.13426  
         H1        1.0000    0.22930   0.08400   0.73770   Biso      1.000     H          0.14888900000000002           
         H2        1.0000    0.09830   0.77260   0.08880   Biso      1.000     H          0.133676  
         H3        1.0000    0.01390   0.87350   0.60230   Biso      1.000     H          0.147647  
         H4        1.0000    0.51390   0.62650   0.89770   Biso      1.000     H          0.147647  
         H5        1.0000    0.59830   0.72740   0.41120   Biso      1.000     H          0.133676  
         H6        1.0000    0.29960   0.99380   0.16990   Biso      1.000     H          0.13386800000000001           
         H7        1.0000    0.79960   0.50620   0.33010   Biso      1.000     H          0.13386800000000001           
         H8        1.0000    0.48610   0.37350   0.10230   Biso      1.000     H          0.147647  
         H9        1.0000    0.72930   0.41600   0.76230   Biso      1.000     H          0.14888900000000002           
         H10       1.0000    0.27070   0.58400   0.23770   Biso      1.000     H          0.14888900000000002           
         H11       1.0000    0.40170   0.27260   0.58880   Biso      1.000     H          0.133676  
         H12       1.0000    0.20040   0.49380   0.66990   Biso      1.000     H          0.133867  
         H13       1.0000    0.98610   0.12650   0.39770   Biso      1.000     H          0.147647  
         H14       1.0000    0.77070   0.91600   0.26230   Biso      1.000     H          0.14888900000000002           
         H15       1.0000    0.90170   0.22740   0.91120   Biso      1.000     H          0.133676  
         H16       1.0000    0.70040   0.00620   0.83010   Biso      1.000     H          0.13386800000000001           
         N1        1.0000    0.78220   0.11853   0.73634   Biso      1.000     N          -0.399725           
         N2        1.0000    0.83220   0.07004   0.22198   Biso      1.000     N          -0.44091800000000003          
         N3        1.0000    0.33220   0.42996   0.27802   Biso      1.000     N          -0.44091800000000003          
         N4        1.0000    0.21780   0.88147   0.26366   Biso      1.000     N          -0.399725           
         N5        1.0000    0.16780   0.92996   0.77802   Biso      1.000     N          -0.44091800000000003          
         N6        1.0000    0.71780   0.61853   0.23634   Biso      1.000     N          -0.399725           
         N7        1.0000    0.66780   0.57004   0.72198   Biso      1.000     N          -0.44091800000000003          
         N8        1.0000    0.28220   0.38147   0.76366   Biso      1.000     N          -0.399725           
         O1        1.0000    0.78320   0.05342   0.97496   Biso      1.000     O          -0.629733           
         O2        1.0000    0.18270   0.81898   0.97848   Biso      1.000     O          -0.626632           
         O3        1.0000    0.41200   0.07112   0.31788   Biso      1.000     O          -0.521934           
         O4        1.0000    0.35330   0.99458   0.38390   Biso      1.000     O          -0.693067           
         O5        1.0000    0.57190   0.26044   0.15807   Biso      1.000     O          -0.5983970000000001           
         O6        1.0000    0.39120   0.28618   0.26427   Biso      1.000     O          -0.687743           
         O7        1.0000    0.31600   0.45938   0.02671   Biso      1.000     O          -0.686102           
         O8        1.0000    0.42360   0.57737   0.10278   Biso      1.000     O          -0.6653100000000001           
         O9        1.0000    0.18520   0.62134   0.38807   Biso      1.000     O          -0.522482           
         O10       1.0000    0.17160   0.51110   0.41069   Biso      1.000     O          -0.711634           
         O11       1.0000    0.48150   0.19320   0.67583   Biso      1.000     O          -0.672882           
         O12       1.0000    0.39500   0.26175   0.79795   Biso      1.000     O          -0.6275609999999999           
         O13       1.0000    0.81730   0.18102   0.02152   Biso      1.000     O          -0.626632           
         O14       1.0000    0.28320   0.44658   0.52504   Biso      1.000     O          -0.629733           
         O15       1.0000    0.08800   0.57112   0.81788   Biso      1.000     O          -0.521934           
         O16       1.0000    0.14670   0.49458   0.88390   Biso      1.000     O          -0.693067           
         O17       1.0000    0.07190   0.23956   0.34193   Biso      1.000     O          -0.5983970000000001           
         O18       1.0000    0.89120   0.21382   0.23573   Biso      1.000     O          -0.687743           
         O19       1.0000    0.21680   0.94658   0.02504   Biso      1.000     O          -0.629733           
         O20       1.0000    0.92360   0.92263   0.39722   Biso      1.000     O          -0.6653100000000001           
         O21       1.0000    0.81600   0.04062   0.47329   Biso      1.000     O          -0.686102           
         O22       1.0000    0.68520   0.87866   0.11193   Biso      1.000     O          -0.522483           
         O23       1.0000    0.67160   0.98890   0.08931   Biso      1.000     O          -0.711634           
         O24       1.0000    0.98150   0.30680   0.82417   Biso      1.000     O          -0.672882           
         O25       1.0000    0.89500   0.23825   0.70205   Biso      1.000     O          -0.6275609999999999           
         O26       1.0000    0.31730   0.31898   0.47848   Biso      1.000     O          -0.626632           
         O27       1.0000    0.10500   0.76175   0.29795   Biso      1.000     O          -0.6275609999999999           
         O28       1.0000    0.64670   0.00542   0.61610   Biso      1.000     O          -0.693067           
         O29       1.0000    0.32840   0.01110   0.91069   Biso      1.000     O          -0.711634           
         O30       1.0000    0.58800   0.92888   0.68212   Biso      1.000     O          -0.521934           
         O31       1.0000    0.42810   0.73956   0.84193   Biso      1.000     O          -0.5983970000000001           
         O32       1.0000    0.60880   0.71382   0.73573   Biso      1.000     O          -0.687743           
         O33       1.0000    0.68400   0.54062   0.97329   Biso      1.000     O          -0.686102           
         O34       1.0000    0.57640   0.42263   0.89722   Biso      1.000     O          -0.6653100000000001           
         O35       1.0000    0.01850   0.69320   0.17583   Biso      1.000     O          -0.672882           
         O36       1.0000    0.82840   0.48890   0.58931   Biso      1.000     O          -0.711634           
         O37       1.0000    0.51850   0.80680   0.32417   Biso      1.000     O          -0.6728810000000001           
         O38       1.0000    0.60500   0.73825   0.20205   Biso      1.000     O          -0.6275609999999999           
         O39       1.0000    0.81480   0.37866   0.61193   Biso      1.000     O          -0.522483           
         O40       1.0000    0.68270   0.68102   0.52152   Biso      1.000     O          -0.626632           
         O41       1.0000    0.91200   0.42888   0.18212   Biso      1.000     O          -0.521934           
         O42       1.0000    0.85330   0.50542   0.11610   Biso      1.000     O          -0.693067           
         O43       1.0000    0.92810   0.76044   0.65807   Biso      1.000     O          -0.598398           
         O44       1.0000    0.10880   0.78618   0.76427   Biso      1.000     O          -0.687743           
         O45       1.0000    0.18400   0.95938   0.52671   Biso      1.000     O          -0.686102           
         O46       1.0000    0.07640   0.07737   0.60278   Biso      1.000     O          -0.6653100000000001           
         O47       1.0000    0.31480   0.12134   0.88807   Biso      1.000     O          -0.522483           
         O48       1.0000    0.71680   0.55342   0.47496   Biso      1.000     O          -0.629733           
         Sm1       1.0000    0.74997   0.62503   0.10328   Biso      1.000     Sm          2.066907  
         Sm2       1.0000    0.27722   0.87331   0.87812   Biso      1.000     Sm          2.050217  
         Sm3       1.0000    0.24997   0.87497   0.39672   Biso      1.000     Sm          2.066907  
         Sm4       1.0000    0.75003   0.12503   0.60328   Biso      1.000     Sm          2.066907  
         Sm5       1.0000    0.25003   0.37497   0.89672   Biso      1.000     Sm          2.066907  
         Sm6       1.0000    0.72278   0.12669   0.12188   Biso      1.000     Sm          2.050216  
         Sm7       1.0000    0.22278   0.37331   0.37812   Biso      1.000     Sm          2.050216  
         Sm8       1.0000    0.77722   0.62669   0.62188   Biso      1.000     Sm          2.050216 