
##########################################################################
#               Crystallographic Information Format file
#               Produced by PyCifRW module
#
#  This is a CIF file.  CIF has been adopted by the International
#  Union of Crystallography as the standard for data archiving and
#  transmission.
#
#  For information on this file format, follow the CIF links at
#  http://www.iucr.org
##########################################################################

data_image0

_cell_length_a                          10.047
_cell_length_b                          12.658
_cell_length_c                          13.494
_cell_angle_alpha                       86.56
_cell_angle_beta                        71.43
_cell_angle_gamma                       72.16
_symmetry_space_group_name_H-M          'P 1'
_symmetry_int_tables_number             1
loop_
  _symmetry_equiv_pos_as_xyz
         'x, y, z' 
loop_
  _atom_site_label
  _atom_site_occupancy
  _atom_site_fract_x
  _atom_site_fract_y
  _atom_site_fract_z
  _atom_site_thermal_displace_type
  _atom_site_B_iso_or_equiv
  _atom_site_type_symbol
  _atom_site_charge
         C1        1.0000    0.95410   0.91050   0.34590   Biso      1.000     C          -0.152383           
         C2        1.0000    0.70700   0.73790   0.66480   Biso      1.000     C          -0.130803           
         C3        1.0000    0.61620   0.84220   0.66500   Biso      1.000     C          -0.024868           
         C4        1.0000    0.83550   0.85020   0.59130   Biso      1.000     C          0.09527999999999999           
         C5        1.0000    0.09260   0.63530   0.12610   Biso      1.000     C          0.5648850000000001  
         C6        1.0000    0.21130   0.87270   0.35030   Biso      1.000     C          0.534833  
         C7        1.0000    0.68710   0.94460   0.36380   Biso      1.000     C          0.589734  
         C8        1.0000    0.89450   0.79340   0.24260   Biso      1.000     C          -0.156229           
         C9        1.0000    0.04500   0.73430   0.20010   Biso      1.000     C          -0.005533           
         C10       1.0000    0.14790   0.76440   0.23140   Biso      1.000     C          -0.134374           
         C11       1.0000    0.10260   0.85080   0.30570   Biso      1.000     C          -0.014667           
         C12       1.0000    0.84920   0.88310   0.31380   Biso      1.000     C          -0.029111           
         C13       1.0000    0.59430   0.98730   0.89770   Biso      1.000     C          -0.142806           
         C14       1.0000    0.53420   0.92550   0.07450   Biso      1.000     C          -0.140651           
         C15       1.0000    0.62840   0.91300   0.97180   Biso      1.000     C          0.154278  
         C16       1.0000    0.89750   0.82320   0.88080   Biso      1.000     C          -0.101905           
         C17       1.0000    0.98990   0.72050   0.88050   Biso      1.000     C          -0.044523           
         C18       1.0000    0.77740   0.71770   0.97660   Biso      1.000     C          0.102136  
         C19       1.0000    0.79270   0.44870   0.53730   Biso      1.000     C          -0.165259           
         C20       1.0000    0.75700   0.51890   0.46160   Biso      1.000     C          0.16663499999999998           
         C21       1.0000    0.98200   0.65200   0.59080   Biso      1.000     C          0.163424  
         C22       1.0000    0.07600   0.63750   0.48910   Biso      1.000     C          -0.139747           
         C23       1.0000    0.01530   0.57980   0.66540   Biso      1.000     C          -0.153407           
         C24       1.0000    0.40520   0.29840   0.56560   Biso      1.000     C          0.102624  
         C25       1.0000    0.90740   0.36470   0.87390   Biso      1.000     C          0.564871  
         C26       1.0000    0.78870   0.12730   0.64970   Biso      1.000     C          0.5348390000000001  
         C27       1.0000    0.31290   0.05540   0.63620   Biso      1.000     C          0.589724  
         C28       1.0000    0.10550   0.20660   0.75740   Biso      1.000     C          -0.156223           
         C29       1.0000    0.95500   0.26570   0.79990   Biso      1.000     C          -0.0055320000000000005        
         C30       1.0000    0.85210   0.23560   0.76860   Biso      1.000     C          -0.134385           
         C31       1.0000    0.89740   0.14920   0.69430   Biso      1.000     C          -0.014688           
         C32       1.0000    0.04590   0.08950   0.65410   Biso      1.000     C          -0.152376           
         C33       1.0000    0.15080   0.11690   0.68620   Biso      1.000     C          -0.029123000000000003         
         C34       1.0000    0.49130   0.61490   0.56670   Biso      1.000     C          -0.142189           
         C35       1.0000    0.40570   0.01270   0.10230   Biso      1.000     C          -0.142798           
         C36       1.0000    0.37160   0.08700   0.02820   Biso      1.000     C          0.154277  
         C37       1.0000    0.10250   0.17680   0.11920   Biso      1.000     C          -0.101913           
         C38       1.0000    0.01010   0.27950   0.11950   Biso      1.000     C          -0.044512           
         C39       1.0000    0.22260   0.28230   0.02340   Biso      1.000     C          0.102132  
         C40       1.0000    0.14750   0.49490   0.63950   Biso      1.000     C          -0.163799           
         C41       1.0000    0.20730   0.55130   0.46270   Biso      1.000     C          -0.16526400000000002          
         C42       1.0000    0.24300   0.48110   0.53840   Biso      1.000     C          0.166629  
         C43       1.0000    0.50870   0.38510   0.43330   Biso      1.000     C          -0.142189           
         C44       1.0000    0.60510   0.28660   0.44340   Biso      1.000     C          -0.022702           
         C45       1.0000    0.46580   0.07450   0.92550   Biso      1.000     C          -0.14064000000000002          
         C46       1.0000    0.39490   0.71340   0.55660   Biso      1.000     C          -0.022694           
         C47       1.0000    0.85250   0.50510   0.36050   Biso      1.000     C          -0.163795           
         C48       1.0000    0.98470   0.42020   0.33460   Biso      1.000     C          -0.153416           
         C49       1.0000    0.92400   0.36250   0.51090   Biso      1.000     C          -0.139742           
         C50       1.0000    0.01800   0.34800   0.40920   Biso      1.000     C          0.16343   
         C51       1.0000    0.59480   0.70160   0.43440   Biso      1.000     C          0.102619  
         C52       1.0000    0.29300   0.26210   0.33520   Biso      1.000     C          -0.1308   
         C53       1.0000    0.38380   0.15780   0.33500   Biso      1.000     C          -0.024875           
         C54       1.0000    0.16450   0.14980   0.40870   Biso      1.000     C          0.095277  
         H1        1.0000    0.92440   0.96900   0.39440   Biso      1.000     H          0.128825  
         H2        1.0000    0.65790   0.97830   0.82930   Biso      1.000     H          0.128439  
         H3        1.0000    0.55790   0.87520   0.12400   Biso      1.000     H          0.139566  
         H4        1.0000    0.92200   0.88320   0.84500   Biso      1.000     H          0.14005599999999999           
         H5        1.0000    0.09050   0.69820   0.84490   Biso      1.000     H          0.124133  
         H6        1.0000    0.70030   0.69400   0.02010   Biso      1.000     H          0.11798800000000001           
         H7        1.0000    0.82800   0.55300   0.30970   Biso      1.000     H          0.131159  
         H8        1.0000    0.29800   0.74040   0.60010   Biso      1.000     H          0.12116800000000001           
         H9        1.0000    0.47350   0.56280   0.61680   Biso      1.000     H          0.13416   
         H10       1.0000    0.82470   0.77270   0.22330   Biso      1.000     H          0.119798  
         H11       1.0000    0.66470   0.71770   0.37640   Biso      1.000     H          0.103966  
         H12       1.0000    0.05030   0.41220   0.26690   Biso      1.000     H          0.13314700000000002           
         H13       1.0000    0.94870   0.31450   0.56170   Biso      1.000     H          0.123904  
         H14       1.0000    0.32010   0.32460   0.30850   Biso      1.000     H          0.13256400000000002           
         H15       1.0000    0.48600   0.13700   0.30780   Biso      1.000     H          0.12375799999999999           
         H16       1.0000    0.08480   0.12390   0.44190   Biso      1.000     H          0.11040599999999999           
         H17       1.0000    0.72910   0.45900   0.60570   Biso      1.000     H          0.133768  
         H18       1.0000    0.91520   0.87610   0.55810   Biso      1.000     H          0.1104    
         H19       1.0000    0.24760   0.72670   0.20250   Biso      1.000     H          0.129954  
         H20       1.0000    0.67990   0.67540   0.69150   Biso      1.000     H          0.13256400000000002           
         H21       1.0000    0.17530   0.22730   0.77670   Biso      1.000     H          0.11979200000000001           
         H22       1.0000    0.75240   0.27330   0.79750   Biso      1.000     H          0.129936  
         H23       1.0000    0.51400   0.86300   0.69220   Biso      1.000     H          0.123754  
         H24       1.0000    0.34210   0.02170   0.17070   Biso      1.000     H          0.12843800000000002           
         H25       1.0000    0.44210   0.12480   0.87600   Biso      1.000     H          0.139566  
         H26       1.0000    0.07800   0.11680   0.15500   Biso      1.000     H          0.14006   
         H27       1.0000    0.90950   0.30180   0.15510   Biso      1.000     H          0.124128  
         H28       1.0000    0.07560   0.03100   0.60560   Biso      1.000     H          0.128821  
         H29       1.0000    0.17200   0.44700   0.69030   Biso      1.000     H          0.131154  
         H30       1.0000    0.27090   0.54100   0.39430   Biso      1.000     H          0.133769  
         H31       1.0000    0.52650   0.43720   0.38320   Biso      1.000     H          0.134152  
         H32       1.0000    0.70200   0.25960   0.39990   Biso      1.000     H          0.12115999999999999           
         H33       1.0000    0.33530   0.28230   0.62360   Biso      1.000     H          0.10396099999999998           
         H34       1.0000    0.94970   0.58780   0.73310   Biso      1.000     H          0.13314700000000002           
         H35       1.0000    0.05130   0.68550   0.43830   Biso      1.000     H          0.123902  
         H36       1.0000    0.29970   0.30600   0.97990   Biso      1.000     H          0.117971  
         N1        1.0000    0.69660   0.91270   0.61930   Biso      1.000     N          -0.266407           
         N2        1.0000    0.76170   0.82250   0.94340   Biso      1.000     N          0.028957999999999998          
         N3        1.0000    0.91370   0.65360   0.94040   Biso      1.000     N          -0.222811           
         N4        1.0000    0.62100   0.60740   0.48750   Biso      1.000     N          0.0026420000000000003         
         N5        1.0000    0.46010   0.76750   0.47370   Biso      1.000     N          -0.237533           
         N6        1.0000    0.08630   0.34640   0.05960   Biso      1.000     N          -0.222816           
         N7        1.0000    0.30340   0.08730   0.38070   Biso      1.000     N          -0.26634800000000003          
         N8        1.0000    0.23830   0.17750   0.05660   Biso      1.000     N          0.028957999999999998          
         N9        1.0000    0.84730   0.74350   0.61720   Biso      1.000     N          0.0071530000000000005         
         N10       1.0000    0.37900   0.39260   0.51250   Biso      1.000     N          0.0026420000000000003         
         N11       1.0000    0.15270   0.25650   0.38280   Biso      1.000     N          0.0071530000000000005         
         N12       1.0000    0.53990   0.23250   0.52630   Biso      1.000     N          -0.23759699999999997          
         Ni1       1.0000    0.38359   0.92467   0.42128   Biso      1.000     Ni          0.8038489999999999  
         Ni2       1.0000    0.00000   0.50000   0.00000   Biso      1.000     Ni          0.606518  
         Ni3       1.0000    0.61641   0.07533   0.57872   Biso      1.000     Ni          0.8039970000000001  
         O1        1.0000    0.59720   0.91060   0.33610   Biso      1.000     O          -0.5501010000000001           
         O2        1.0000    0.65210   0.02160   0.42890   Biso      1.000     O          -0.574729           
         O3        1.0000    0.16680   0.91020   0.44350   Biso      1.000     O          -0.5309699999999999           
         O4        1.0000    0.34500   0.85290   0.29490   Biso      1.000     O          -0.532738           
         O5        1.0000    0.22830   0.59830   0.07480   Biso      1.000     O          -0.5909840000000001           
         O6        1.0000    0.99560   0.59600   0.12040   Biso      1.000     O          -0.525158           
         O7        1.0000    0.40280   0.08940   0.66390   Biso      1.000     O          -0.550133           
         O8        1.0000    0.34790   0.97840   0.57110   Biso      1.000     O          -0.574808           
         O9        1.0000    0.83320   0.08980   0.55650   Biso      1.000     O          -0.530906           
         O10       1.0000    0.65500   0.14710   0.70510   Biso      1.000     O          -0.532702           
         O11       1.0000    0.77170   0.40170   0.92520   Biso      1.000     O          -0.591208           
         O12       1.0000    0.00440   0.40400   0.87960   Biso      1.000     O          -0.5250560000000001 