
##########################################################################
#               Crystallographic Information Format file
#               Produced by PyCifRW module
#
#  This is a CIF file.  CIF has been adopted by the International
#  Union of Crystallography as the standard for data archiving and
#  transmission.
#
#  For information on this file format, follow the CIF links at
#  http://www.iucr.org
##########################################################################

data_image0

_cell_length_a                          10.2537
_cell_length_b                          10.932
_cell_length_c                          13.3383
_cell_angle_alpha                       90
_cell_angle_beta                        90
_cell_angle_gamma                       113.149
_symmetry_space_group_name_H-M          'P 1'
_symmetry_int_tables_number             1
loop_
  _symmetry_equiv_pos_as_xyz
         'x, y, z' 
loop_
  _atom_site_label
  _atom_site_occupancy
  _atom_site_fract_x
  _atom_site_fract_y
  _atom_site_fract_z
  _atom_site_thermal_displace_type
  _atom_site_B_iso_or_equiv
  _atom_site_type_symbol
  _atom_site_charge
         C1        1.0000    0.46140   0.43160   0.51910   Biso      1.000     C          0.114053  
         C2        1.0000    0.31450   0.37090   0.52060   Biso      1.000     C          -0.157671           
         C3        1.0000    0.53070   0.35640   0.55650   Biso      1.000     C          -0.16525  
         C4        1.0000    0.11760   0.48110   0.30430   Biso      1.000     C          0.578145  
         C5        1.0000    0.04780   0.48800   0.40323   Biso      1.000     C          -0.017176           
         C6        1.0000    0.95240   0.37570   0.45331   Biso      1.000     C          -0.034902999999999997         
         C7        1.0000    0.89450   0.24130   0.40430   Biso      1.000     C          0.563976  
         C8        1.0000    0.09260   0.60970   0.45085   Biso      1.000     C          -0.1405   
         C9        1.0000    0.24780   0.24340   0.55620   Biso      1.000     C          0.077606  
         C10       1.0000    0.04280   0.26900   0.09340   Biso      1.000     C          0.11337   
         C11       1.0000    0.03860   0.06840   0.01910   Biso      1.000     C          0.114054  
         C12       1.0000    0.18550   0.12910   0.02060   Biso      1.000     C          -0.157672           
         C13       1.0000    0.25220   0.25660   0.05620   Biso      1.000     C          0.077609  
         C14       1.0000    0.38240   0.01890   0.80430   Biso      1.000     C          0.578144  
         C15       1.0000    0.45220   0.01200   0.90323   Biso      1.000     C          -0.017177           
         C16       1.0000    0.54760   0.12430   0.95331   Biso      1.000     C          -0.034905           
         C17       1.0000    0.60550   0.25870   0.90430   Biso      1.000     C          0.563973  
         C18       1.0000    0.96930   0.14360   0.05650   Biso      1.000     C          -0.165239           
         C19       1.0000    0.88240   0.51890   0.69570   Biso      1.000     C          0.5781470000000001  
         C20       1.0000    0.95220   0.51200   0.59677   Biso      1.000     C          -0.017172999999999997         
         C21       1.0000    0.04760   0.62430   0.54669   Biso      1.000     C          -0.034913           
         C22       1.0000    0.75220   0.75660   0.44380   Biso      1.000     C          0.07761   
         C23       1.0000    0.68550   0.62910   0.47940   Biso      1.000     C          -0.157673           
         C24       1.0000    0.53860   0.56840   0.48090   Biso      1.000     C          0.114059  
         C25       1.0000    0.46930   0.64360   0.44350   Biso      1.000     C          -0.165247           
         C26       1.0000    0.54280   0.76900   0.40660   Biso      1.000     C          0.11338   
         C27       1.0000    0.59260   0.10970   0.04915   Biso      1.000     C          -0.140509           
         C28       1.0000    0.39450   0.74130   0.09570   Biso      1.000     C          0.563983  
         C29       1.0000    0.45240   0.87570   0.04669   Biso      1.000     C          -0.034914999999999995         
         C30       1.0000    0.54780   0.98800   0.09677   Biso      1.000     C          -0.017172           
         C31       1.0000    0.61760   0.98110   0.19570   Biso      1.000     C          0.5781470000000001  
         C32       1.0000    0.74780   0.74340   0.94380   Biso      1.000     C          0.077613  
         C33       1.0000    0.81450   0.87090   0.97940   Biso      1.000     C          -0.157672           
         C34       1.0000    0.96140   0.93160   0.98090   Biso      1.000     C          0.114061  
         C35       1.0000    0.03070   0.85640   0.94350   Biso      1.000     C          -0.165245           
         C36       1.0000    0.95720   0.73100   0.90660   Biso      1.000     C          0.11338   
         C37       1.0000    0.90740   0.39030   0.54915   Biso      1.000     C          -0.140505           
         C38       1.0000    0.10550   0.75870   0.59570   Biso      1.000     C          0.563987  
         C39       1.0000    0.40740   0.89030   0.95085   Biso      1.000     C          -0.140502           
         C40       1.0000    0.45720   0.23100   0.59340   Biso      1.000     C          0.11337799999999999           
         Co1       1.0000    0.28865   0.51223   0.16323   Biso      1.000     Co          0.6564810000000001  
         Co2       1.0000    0.71135   0.48777   0.83677   Biso      1.000     Co          0.656568  
         Co3       1.0000    0.21135   0.98777   0.66323   Biso      1.000     Co          0.656428  
         Co4       1.0000    0.78865   0.01223   0.33677   Biso      1.000     Co          0.656533  
         H1        1.0000    0.85080   0.79550   0.44630   Biso      1.000     H          0.09663300000000001           
         H2        1.0000    0.15520   0.68460   0.41760   Biso      1.000     H          0.138139  
         H3        1.0000    0.99160   0.31560   0.11930   Biso      1.000     H          0.10888199999999999           
         H4        1.0000    0.87070   0.10870   0.05690   Biso      1.000     H          0.122233  
         H5        1.0000    0.35080   0.29550   0.05370   Biso      1.000     H          0.096635  
         H6        1.0000    0.34480   0.81540   0.91760   Biso      1.000     H          0.138138  
         H7        1.0000    0.50840   0.18440   0.61930   Biso      1.000     H          0.108884  
         H8        1.0000    0.62930   0.39130   0.55690   Biso      1.000     H          0.122234  
         H9        1.0000    0.23900   0.08320   0.99750   Biso      1.000     H          0.122031  
         H10       1.0000    0.14920   0.20450   0.55370   Biso      1.000     H          0.096636  
         H11       1.0000    0.26100   0.41680   0.49750   Biso      1.000     H          0.12203   
         H12       1.0000    0.37070   0.60870   0.44310   Biso      1.000     H          0.122232  
         H13       1.0000    0.49160   0.81560   0.38070   Biso      1.000     H          0.10887999999999999           
         H14       1.0000    0.65520   0.18460   0.08240   Biso      1.000     H          0.138138  
         H15       1.0000    0.64920   0.70450   0.94630   Biso      1.000     H          0.09663300000000001           
         H16       1.0000    0.73900   0.58320   0.50250   Biso      1.000     H          0.122031  
         H17       1.0000    0.12930   0.89130   0.94310   Biso      1.000     H          0.122232  
         H18       1.0000    0.00840   0.68440   0.88070   Biso      1.000     H          0.10887899999999999           
         H19       1.0000    0.84480   0.31540   0.58240   Biso      1.000     H          0.138139  
         H20       1.0000    0.76100   0.91680   0.00250   Biso      1.000     H          0.122031  
         N1        1.0000    0.18420   0.32800   0.09397   Biso      1.000     N          -0.19115  
         N2        1.0000    0.31580   0.17200   0.59397   Biso      1.000     N          -0.191137           
         N3        1.0000    0.81580   0.67200   0.90603   Biso      1.000     N          -0.191171           
         N4        1.0000    0.68420   0.82800   0.40603   Biso      1.000     N          -0.191163           
         O1        1.0000    0.79071   0.56801   0.69370   Biso      1.000     O          -0.5135029999999999           
         O2        1.0000    0.59651   0.03491   0.27254   Biso      1.000     O          -0.498287           
         O3        1.0000    0.70929   0.93199   0.19370   Biso      1.000     O          -0.513494           
         O4        1.0000    0.15905   0.86025   0.54160   Biso      1.000     O          -0.487462           
         O5        1.0000    0.10197   0.76837   0.68903   Biso      1.000     O          -0.48566099999999995          
         O6        1.0000    0.90349   0.46509   0.77254   Biso      1.000     O          -0.49828599999999995          
         O7        1.0000    0.65905   0.36025   0.95840   Biso      1.000     O          -0.48748100000000005          
         O8        1.0000    0.39803   0.73163   0.18903   Biso      1.000     O          -0.485676           
         O9        1.0000    0.40349   0.96509   0.72746   Biso      1.000     O          -0.49829300000000004          
         O10       1.0000    0.29071   0.06801   0.80630   Biso      1.000     O          -0.513465           
         O11       1.0000    0.84095   0.13975   0.45840   Biso      1.000     O          -0.487476           
         O12       1.0000    0.89803   0.23163   0.31097   Biso      1.000     O          -0.48568900000000004          
         O13       1.0000    0.09651   0.53491   0.22746   Biso      1.000     O          -0.49828999999999996          
         O14       1.0000    0.20929   0.43199   0.30630   Biso      1.000     O          -0.51348  
         O15       1.0000    0.60197   0.26837   0.81097   Biso      1.000     O          -0.48569799999999996          
         O16       1.0000    0.34095   0.63975   0.04160   Biso      1.000     O          -0.48746999999999996 