
##########################################################################
#               Crystallographic Information Format file
#               Produced by PyCifRW module
#
#  This is a CIF file.  CIF has been adopted by the International
#  Union of Crystallography as the standard for data archiving and
#  transmission.
#
#  For information on this file format, follow the CIF links at
#  http://www.iucr.org
##########################################################################

data_image0

_cell_length_a                          18.6011
_cell_length_b                          18.6011
_cell_length_c                          9.9
_cell_angle_alpha                       90
_cell_angle_beta                        90
_cell_angle_gamma                       120
_symmetry_space_group_name_H-M          'P 1'
_symmetry_int_tables_number             1
loop_
  _symmetry_equiv_pos_as_xyz
         'x, y, z' 
loop_
  _atom_site_label
  _atom_site_occupancy
  _atom_site_fract_x
  _atom_site_fract_y
  _atom_site_fract_z
  _atom_site_thermal_displace_type
  _atom_site_B_iso_or_equiv
  _atom_site_type_symbol
  _atom_site_charge
         C1        1.0000    0.36806   0.21208   0.32720   Biso      1.000     C          0.147697  
         C2        1.0000    0.17735   0.29861   0.99387   Biso      1.000     C          0.148009  
         C3        1.0000    0.15598   0.36806   0.67280   Biso      1.000     C          0.147828  
         C4        1.0000    0.21208   0.36806   0.17280   Biso      1.000     C          0.147698  
         C5        1.0000    0.54541   0.51069   0.33947   Biso      1.000     C          0.148756  
         C6        1.0000    0.87875   0.17735   0.00613   Biso      1.000     C          0.148044  
         C7        1.0000    0.87875   0.70139   0.50613   Biso      1.000     C          0.147784  
         C8        1.0000    0.21208   0.84402   0.67280   Biso      1.000     C          0.147809  
         C9        1.0000    0.54541   0.03473   0.83947   Biso      1.000     C          0.148779  
         C10       1.0000    0.96527   0.45459   0.33947   Biso      1.000     C          0.148779  
         C11       1.0000    0.15598   0.78792   0.17280   Biso      1.000     C          0.147809  
         C12       1.0000    0.29861   0.12125   0.00613   Biso      1.000     C          0.147784  
         C13       1.0000    0.63194   0.78792   0.67280   Biso      1.000     C          0.147698  
         C14       1.0000    0.82265   0.12125   0.50613   Biso      1.000     C          0.148044  
         C15       1.0000    0.70139   0.82265   0.49387   Biso      1.000     C          0.148009  
         C16       1.0000    0.96527   0.51069   0.83947   Biso      1.000     C          0.148826  
         C17       1.0000    0.48931   0.45459   0.83947   Biso      1.000     C          0.148756  
         C18       1.0000    0.29861   0.17735   0.50613   Biso      1.000     C          0.14801   
         C19       1.0000    0.82265   0.70139   0.00613   Biso      1.000     C          0.14801   
         C20       1.0000    0.51069   0.96527   0.66053   Biso      1.000     C          0.148825  
         C21       1.0000    0.63194   0.84402   0.17280   Biso      1.000     C          0.147828  
         C22       1.0000    0.12125   0.29861   0.49387   Biso      1.000     C          0.147783  
         C23       1.0000    0.51069   0.54541   0.16053   Biso      1.000     C          0.148755  
         C24       1.0000    0.78792   0.15598   0.32720   Biso      1.000     C          0.147808  
         C25       1.0000    0.48931   0.03473   0.33947   Biso      1.000     C          0.148827  
         C26       1.0000    0.84402   0.21208   0.82720   Biso      1.000     C          0.147808  
         C27       1.0000    0.36806   0.15598   0.82720   Biso      1.000     C          0.147827  
         C28       1.0000    0.45459   0.48931   0.66053   Biso      1.000     C          0.148755  
         C29       1.0000    0.17735   0.87875   0.49387   Biso      1.000     C          0.148043  
         C30       1.0000    0.70139   0.87875   0.99387   Biso      1.000     C          0.147783  
         C31       1.0000    0.12125   0.82265   0.99387   Biso      1.000     C          0.148043  
         C32       1.0000    0.03473   0.48931   0.16053   Biso      1.000     C          0.148826  
         C33       1.0000    0.45459   0.96527   0.16053   Biso      1.000     C          0.148778  
         C34       1.0000    0.78792   0.63194   0.82720   Biso      1.000     C          0.147697  
         C35       1.0000    0.84402   0.63194   0.32720   Biso      1.000     C          0.147827  
         C36       1.0000    0.03473   0.54541   0.66053   Biso      1.000     C          0.148778  
         F1        1.0000    0.00000   0.74275   0.75000   Biso      1.000     F          -0.574793           
         F2        1.0000    0.33333   0.40942   0.41667   Biso      1.000     F          -0.574746           
         F3        1.0000    0.00000   0.25725   0.25000   Biso      1.000     F          -0.574794           
         F4        1.0000    0.59058   0.92392   0.41667   Biso      1.000     F          -0.574747           
         F5        1.0000    0.40942   0.33333   0.08333   Biso      1.000     F          -0.574746           
         F6        1.0000    0.25725   0.25725   0.75000   Biso      1.000     F          -0.574781           
         F7        1.0000    0.74275   0.00000   0.75000   Biso      1.000     F          -0.574793           
         F8        1.0000    0.66667   0.59058   0.58333   Biso      1.000     F          -0.574746           
         F9        1.0000    0.92392   0.59058   0.08333   Biso      1.000     F          -0.574747           
         F10       1.0000    0.07608   0.66667   0.41667   Biso      1.000     F          -0.574724           
         F11       1.0000    0.66667   0.07608   0.08333   Biso      1.000     F          -0.574724           
         F12       1.0000    0.92392   0.33333   0.58333   Biso      1.000     F          -0.574725           
         F13       1.0000    0.07608   0.40942   0.91667   Biso      1.000     F          -0.574747           
         F14       1.0000    0.59058   0.66667   0.91667   Biso      1.000     F          -0.574746           
         F15       1.0000    0.74275   0.74275   0.25000   Biso      1.000     F          -0.574781           
         F16       1.0000    0.33333   0.92392   0.91667   Biso      1.000     F          -0.574725           
         F17       1.0000    0.25725   0.00000   0.25000   Biso      1.000     F          -0.574793           
         F18       1.0000    0.40942   0.07608   0.58333   Biso      1.000     F          -0.574747           
         H1        1.0000    0.48087   0.93593   0.58473   Biso      1.000     H          0.106138  
         H2        1.0000    0.51913   0.06407   0.41527   Biso      1.000     H          0.106138  
         H3        1.0000    0.81420   0.60260   0.25140   Biso      1.000     H          0.106561  
         H4        1.0000    0.39740   0.21160   0.25140   Biso      1.000     H          0.106599  
         H5        1.0000    0.06407   0.51913   0.08473   Biso      1.000     H          0.106138  
         H6        1.0000    0.78840   0.60260   0.75140   Biso      1.000     H          0.106599  
         H7        1.0000    0.12173   0.85247   0.91807   Biso      1.000     H          0.106528  
         H8        1.0000    0.45507   0.93593   0.08473   Biso      1.000     H          0.106151  
         H9        1.0000    0.45507   0.51913   0.58473   Biso      1.000     H          0.106085  
         H10       1.0000    0.12173   0.26927   0.41807   Biso      1.000     H          0.106624  
         H11       1.0000    0.39740   0.18580   0.75140   Biso      1.000     H          0.106561  
         H12       1.0000    0.60260   0.81420   0.24860   Biso      1.000     H          0.106562  
         H13       1.0000    0.81420   0.21160   0.75140   Biso      1.000     H          0.106579  
         H14       1.0000    0.78840   0.18580   0.25140   Biso      1.000     H          0.106579  
         H15       1.0000    0.48087   0.54493   0.08473   Biso      1.000     H          0.106084  
         H16       1.0000    0.73073   0.87827   0.91807   Biso      1.000     H          0.106624  
         H17       1.0000    0.14753   0.87827   0.41807   Biso      1.000     H          0.106528  
         H18       1.0000    0.06407   0.54493   0.58473   Biso      1.000     H          0.106151  
         H19       1.0000    0.85247   0.73073   0.08193   Biso      1.000     H          0.106605  
         H20       1.0000    0.73073   0.85247   0.41807   Biso      1.000     H          0.106605  
         H21       1.0000    0.54493   0.06407   0.91527   Biso      1.000     H          0.106151  
         H22       1.0000    0.18580   0.78840   0.24860   Biso      1.000     H          0.106579  
         H23       1.0000    0.26927   0.12173   0.08193   Biso      1.000     H          0.106624  
         H24       1.0000    0.18580   0.39740   0.74860   Biso      1.000     H          0.106561  
         H25       1.0000    0.93593   0.45507   0.41527   Biso      1.000     H          0.106151  
         H26       1.0000    0.85247   0.12173   0.58193   Biso      1.000     H          0.106528  
         H27       1.0000    0.93593   0.48087   0.91527   Biso      1.000     H          0.106138  
         H28       1.0000    0.60260   0.78840   0.74860   Biso      1.000     H          0.106599  
         H29       1.0000    0.21160   0.81420   0.74860   Biso      1.000     H          0.106579  
         H30       1.0000    0.87827   0.14753   0.08193   Biso      1.000     H          0.106528  
         H31       1.0000    0.21160   0.39740   0.24860   Biso      1.000     H          0.106599  
         H32       1.0000    0.26927   0.14753   0.58193   Biso      1.000     H          0.106605  
         H33       1.0000    0.54493   0.48087   0.41527   Biso      1.000     H          0.106085  
         H34       1.0000    0.51913   0.45507   0.91527   Biso      1.000     H          0.106084  
         H35       1.0000    0.14753   0.26927   0.91807   Biso      1.000     H          0.106605  
         H36       1.0000    0.87827   0.73073   0.58193   Biso      1.000     H          0.106624  
         N1        1.0000    0.33333   0.14935   0.41667   Biso      1.000     N          -0.29048  
         N2        1.0000    0.66667   0.81601   0.08333   Biso      1.000     N          -0.290459           
         N3        1.0000    0.33333   0.18399   0.91667   Biso      1.000     N          -0.290459           
         N4        1.0000    0.14935   0.81601   0.58333   Biso      1.000     N          -0.290538           
         N5        1.0000    0.00000   0.48268   0.75000   Biso      1.000     N          -0.290585           
         N6        1.0000    0.81601   0.66667   0.41667   Biso      1.000     N          -0.290459           
         N7        1.0000    0.48268   0.48268   0.25000   Biso      1.000     N          -0.290482           
         N8        1.0000    0.85065   0.18399   0.41667   Biso      1.000     N          -0.290538           
         N9        1.0000    0.14935   0.33333   0.08333   Biso      1.000     N          -0.29048  
         N10       1.0000    0.81601   0.14935   0.91667   Biso      1.000     N          -0.290538           
         N11       1.0000    0.18399   0.33333   0.58333   Biso      1.000     N          -0.290459           
         N12       1.0000    0.51732   0.51732   0.75000   Biso      1.000     N          -0.290482           
         N13       1.0000    0.48268   0.00000   0.75000   Biso      1.000     N          -0.290585           
         N14       1.0000    0.51732   0.00000   0.25000   Biso      1.000     N          -0.290586           
         N15       1.0000    0.85065   0.66667   0.91667   Biso      1.000     N          -0.29048  
         N16       1.0000    0.18399   0.85065   0.08333   Biso      1.000     N          -0.290538           
         N17       1.0000    0.66667   0.85065   0.58333   Biso      1.000     N          -0.29048  
         N18       1.0000    0.41559   0.02291   0.30857   Biso      1.000     N          -0.191466           
         N19       1.0000    0.74893   0.68957   0.97523   Biso      1.000     N          -0.191593           
         N20       1.0000    0.94065   0.25107   0.97523   Biso      1.000     N          -0.191495           
         N21       1.0000    0.27398   0.91774   0.64190   Biso      1.000     N          -0.190666           
         N22       1.0000    0.97709   0.39269   0.30857   Biso      1.000     N          -0.191592           
         N23       1.0000    0.31043   0.05935   0.97523   Biso      1.000     N          -0.191428           
         N24       1.0000    0.64376   0.72602   0.64190   Biso      1.000     N          -0.19056  
         N25       1.0000    0.97709   0.58441   0.80857   Biso      1.000     N          -0.191466           
         N26       1.0000    0.31043   0.25107   0.47523   Biso      1.000     N          -0.191593           
         N27       1.0000    0.64376   0.91774   0.14190   Biso      1.000     N          -0.190652           
         N28       1.0000    0.41559   0.39269   0.80857   Biso      1.000     N          -0.191499           
         N29       1.0000    0.74893   0.05935   0.47523   Biso      1.000     N          -0.191495           
         N30       1.0000    0.08226   0.72602   0.14190   Biso      1.000     N          -0.190666           
         N31       1.0000    0.60731   0.02291   0.80857   Biso      1.000     N          -0.191592           
         N32       1.0000    0.94065   0.68957   0.47523   Biso      1.000     N          -0.191428           
         N33       1.0000    0.27398   0.35624   0.14190   Biso      1.000     N          -0.19056  
         N34       1.0000    0.25107   0.31043   0.02477   Biso      1.000     N          -0.191584           
         N35       1.0000    0.58441   0.97709   0.69143   Biso      1.000     N          -0.191457           
         N36       1.0000    0.91774   0.64376   0.35810   Biso      1.000     N          -0.190643           
         N37       1.0000    0.05935   0.74893   0.02477   Biso      1.000     N          -0.191487           
         N38       1.0000    0.39269   0.41559   0.69143   Biso      1.000     N          -0.191489           
         N39       1.0000    0.72602   0.08226   0.35810   Biso      1.000     N          -0.190657           
         N40       1.0000    0.68957   0.94065   0.02477   Biso      1.000     N          -0.19142  
         N41       1.0000    0.02291   0.60731   0.69143   Biso      1.000     N          -0.191583           
         N42       1.0000    0.35624   0.27398   0.35810   Biso      1.000     N          -0.190552           
         N43       1.0000    0.60731   0.58441   0.30857   Biso      1.000     N          -0.191499           
         N44       1.0000    0.08226   0.35624   0.64190   Biso      1.000     N          -0.190652           
         N45       1.0000    0.00000   0.51732   0.25000   Biso      1.000     N          -0.290585           
         N46       1.0000    0.72602   0.64376   0.85810   Biso      1.000     N          -0.190552           
         N47       1.0000    0.39269   0.97709   0.19143   Biso      1.000     N          -0.191583           
         N48       1.0000    0.05935   0.31043   0.52477   Biso      1.000     N          -0.19142  
         N49       1.0000    0.91774   0.27398   0.85810   Biso      1.000     N          -0.190657           
         N50       1.0000    0.58441   0.60731   0.19143   Biso      1.000     N          -0.191489           
         N51       1.0000    0.25107   0.94065   0.52477   Biso      1.000     N          -0.191487           
         N52       1.0000    0.35624   0.08226   0.85810   Biso      1.000     N          -0.190643           
         N53       1.0000    0.02291   0.41559   0.19143   Biso      1.000     N          -0.191457           
         N54       1.0000    0.68957   0.74893   0.52477   Biso      1.000     N          -0.191584           
         Zn1       1.0000    0.00000   0.62515   0.25000   Biso      1.000     Zn          0.738076  
         Zn2       1.0000    0.95848   0.66667   0.91667   Biso      1.000     Zn          0.738689  
         Zn3       1.0000    0.04152   0.70818   0.58333   Biso      1.000     Zn          0.738665  
         Zn4       1.0000    0.62515   0.00000   0.25000   Biso      1.000     Zn          0.738076  
         Zn5       1.0000    0.70818   0.04152   0.91667   Biso      1.000     Zn          0.738665  
         Zn6       1.0000    0.66667   0.95848   0.58333   Biso      1.000     Zn          0.738689  
         Zn7       1.0000    0.29182   0.33333   0.58333   Biso      1.000     Zn          0.738716  
         Zn8       1.0000    0.33333   0.29182   0.91667   Biso      1.000     Zn          0.738717  
         Zn9       1.0000    0.37485   0.00000   0.75000   Biso      1.000     Zn          0.738076  
         Zn10      1.0000    0.29182   0.95848   0.08333   Biso      1.000     Zn          0.738664  
         Zn11      1.0000    0.95848   0.29182   0.41667   Biso      1.000     Zn          0.738665  
         Zn12      1.0000    0.04152   0.33333   0.08333   Biso      1.000     Zn          0.738689  
         Zn13      1.0000    0.70818   0.66667   0.41667   Biso      1.000     Zn          0.738717  
         Zn14      1.0000    0.00000   0.37485   0.75000   Biso      1.000     Zn          0.738076  
         Zn15      1.0000    0.66667   0.70818   0.08333   Biso      1.000     Zn          0.738717  
         Zn16      1.0000    0.33333   0.04152   0.41667   Biso      1.000     Zn          0.738689  
         Zn17      1.0000    0.62515   0.62515   0.75000   Biso      1.000     Zn          0.738143  
         Zn18      1.0000    0.37485   0.37485   0.25000   Biso      1.000     Zn          0.738143 