
##########################################################################
#               Crystallographic Information Format file
#               Produced by PyCifRW module
#
#  This is a CIF file.  CIF has been adopted by the International
#  Union of Crystallography as the standard for data archiving and
#  transmission.
#
#  For information on this file format, follow the CIF links at
#  http://www.iucr.org
##########################################################################

data_image0

_cell_length_a                          9.0595
_cell_length_b                          7.4628
_cell_length_c                          9.4321
_cell_angle_alpha                       90
_cell_angle_beta                        90
_cell_angle_gamma                       90
_symmetry_space_group_name_H-M          'P 1'
_symmetry_int_tables_number             1
loop_
  _symmetry_equiv_pos_as_xyz
         'x, y, z' 
loop_
  _atom_site_label
  _atom_site_occupancy
  _atom_site_fract_x
  _atom_site_fract_y
  _atom_site_fract_z
  _atom_site_thermal_displace_type
  _atom_site_B_iso_or_equiv
  _atom_site_type_symbol
  _atom_site_charge
         F1        1.0000    0.64700   0.55630   0.63320   Biso      1.000     F          -0.587325           
         F2        1.0000    0.00000   0.25000   0.92450   Biso      1.000     F          -0.641759           
         F3        1.0000    0.50000   0.75000   0.42450   Biso      1.000     F          -0.641736           
         F4        1.0000    0.85300   0.05630   0.13320   Biso      1.000     F          -0.596299           
         F5        1.0000    0.35300   0.55630   0.63320   Biso      1.000     F          -0.5963390000000001           
         F6        1.0000    0.50000   0.25000   0.57550   Biso      1.000     F          -0.641736           
         F7        1.0000    0.64700   0.94370   0.63320   Biso      1.000     F          -0.5873619999999999           
         F8        1.0000    0.14700   0.55630   0.86680   Biso      1.000     F          -0.5964470000000001           
         F9        1.0000    0.64700   0.05630   0.36680   Biso      1.000     F          -0.5964149999999999           
         F10       1.0000    0.14700   0.44370   0.13320   Biso      1.000     F          -0.587368           
         F11       1.0000    0.35300   0.44370   0.36680   Biso      1.000     F          -0.587324           
         F12       1.0000    0.14700   0.05630   0.13320   Biso      1.000     F          -0.58729  
         F13       1.0000    0.35300   0.94370   0.63320   Biso      1.000     F          -0.596414           
         F14       1.0000    0.85300   0.94370   0.86680   Biso      1.000     F          -0.58729  
         F15       1.0000    0.85300   0.44370   0.13320   Biso      1.000     F          -0.596448           
         F16       1.0000    0.00000   0.75000   0.07550   Biso      1.000     F          -0.641759           
         F17       1.0000    0.85300   0.55630   0.86680   Biso      1.000     F          -0.587368           
         F18       1.0000    0.64700   0.44370   0.36680   Biso      1.000     F          -0.59634  
         F19       1.0000    0.14700   0.94370   0.86680   Biso      1.000     F          -0.596298           
         F20       1.0000    0.35300   0.05630   0.36680   Biso      1.000     F          -0.587361           
         V1        1.0000    0.50000   0.50000   0.50000   Biso      1.000     V          1.8536    
         V2        1.0000    0.00000   0.00000   0.00000   Biso      1.000     V          1.85358   
         V3        1.0000    0.50000   0.00000   0.50000   Biso      1.000     V          1.853633  
         V4        1.0000    0.00000   0.50000   0.00000   Biso      1.000     V          1.853688  
         Zn1       1.0000    0.75000   0.75000   0.75000   Biso      1.000     Zn          1.14062   
         Zn2       1.0000    0.25000   0.75000   0.75000   Biso      1.000     Zn          1.170469  
         Zn3       1.0000    0.75000   0.25000   0.25000   Biso      1.000     Zn          1.170474  
         Zn4       1.0000    0.25000   0.25000   0.25000   Biso      1.000     Zn          1.140614 