
##########################################################################
#               Crystallographic Information Format file
#               Produced by PyCifRW module
#
#  This is a CIF file.  CIF has been adopted by the International
#  Union of Crystallography as the standard for data archiving and
#  transmission.
#
#  For information on this file format, follow the CIF links at
#  http://www.iucr.org
##########################################################################

data_image0

_cell_length_a                          9.0193
_cell_length_b                          7.3421
_cell_length_c                          9.3901
_cell_angle_alpha                       90
_cell_angle_beta                        90
_cell_angle_gamma                       90
_symmetry_space_group_name_H-M          'P 1'
_symmetry_int_tables_number             1
loop_
  _symmetry_equiv_pos_as_xyz
         'x, y, z' 
loop_
  _atom_site_label
  _atom_site_occupancy
  _atom_site_fract_x
  _atom_site_fract_y
  _atom_site_fract_z
  _atom_site_thermal_displace_type
  _atom_site_B_iso_or_equiv
  _atom_site_type_symbol
  _atom_site_charge
         Co1       1.0000    0.75000   0.25000   0.25000   Biso      1.000     Co          1.159274  
         Co2       1.0000    0.25000   0.25000   0.25000   Biso      1.000     Co          1.169274  
         Co3       1.0000    0.25000   0.75000   0.75000   Biso      1.000     Co          1.1688370000000001  
         Co4       1.0000    0.75000   0.75000   0.75000   Biso      1.000     Co          1.169216  
         F1        1.0000    0.64890   0.54960   0.63460   Biso      1.000     F          -0.559571           
         F2        1.0000    0.00000   0.25000   0.92550   Biso      1.000     F          -0.539667           
         F3        1.0000    0.50000   0.75000   0.42550   Biso      1.000     F          -0.539261           
         F4        1.0000    0.85110   0.04960   0.13460   Biso      1.000     F          -0.556728           
         F5        1.0000    0.35110   0.54960   0.63460   Biso      1.000     F          -0.559519           
         F6        1.0000    0.50000   0.25000   0.57450   Biso      1.000     F          -0.539667           
         F7        1.0000    0.64890   0.95040   0.63460   Biso      1.000     F          -0.559578           
         F8        1.0000    0.14890   0.45040   0.13460   Biso      1.000     F          -0.5594720000000001           
         F9        1.0000    0.64890   0.04960   0.36540   Biso      1.000     F          -0.556661           
         F10       1.0000    0.85110   0.95040   0.86540   Biso      1.000     F          -0.559571           
         F11       1.0000    0.35110   0.45040   0.36540   Biso      1.000     F          -0.559483           
         F12       1.0000    0.14890   0.95040   0.86540   Biso      1.000     F          -0.5595180000000001           
         F13       1.0000    0.64890   0.45040   0.36540   Biso      1.000     F          -0.5567270000000001           
         F14       1.0000    0.85110   0.54960   0.86540   Biso      1.000     F          -0.559578           
         F15       1.0000    0.35110   0.04960   0.36540   Biso      1.000     F          -0.5594720000000001           
         F16       1.0000    0.85110   0.45040   0.13460   Biso      1.000     F          -0.556662           
         F17       1.0000    0.35110   0.95040   0.63460   Biso      1.000     F          -0.559524           
         F18       1.0000    0.14890   0.04960   0.13460   Biso      1.000     F          -0.5594819999999999           
         F19       1.0000    0.14890   0.54960   0.86540   Biso      1.000     F          -0.559525           
         F20       1.0000    0.00000   0.75000   0.07450   Biso      1.000     F          -0.5392600000000001           
         Ga1       1.0000    0.50000   0.50000   0.50000   Biso      1.000     Ga          1.608085  
         Ga2       1.0000    0.00000   0.00000   0.00000   Biso      1.000     Ga          1.608085  
         Ga3       1.0000    0.50000   0.00000   0.50000   Biso      1.000     Ga          1.608077  
         Ga4       1.0000    0.00000   0.50000   0.00000   Biso      1.000     Ga          1.608077 