
##########################################################################
#               Crystallographic Information Format file
#               Produced by PyCifRW module
#
#  This is a CIF file.  CIF has been adopted by the International
#  Union of Crystallography as the standard for data archiving and
#  transmission.
#
#  For information on this file format, follow the CIF links at
#  http://www.iucr.org
##########################################################################

data_image0

_cell_length_a                          10.29
_cell_length_b                          10.29
_cell_length_c                          14.5
_cell_angle_alpha                       90
_cell_angle_beta                        90
_cell_angle_gamma                       90
_symmetry_space_group_name_H-M          'P 1'
_symmetry_int_tables_number             1
loop_
  _symmetry_equiv_pos_as_xyz
         'x, y, z' 
loop_
  _atom_site_label
  _atom_site_occupancy
  _atom_site_fract_x
  _atom_site_fract_y
  _atom_site_fract_z
  _atom_site_thermal_displace_type
  _atom_site_B_iso_or_equiv
  _atom_site_type_symbol
  _atom_site_charge
         C1        1.0000    0.95510   0.39540   0.92370   Biso      1.000     C          -0.108448           
         C2        1.0000    0.39540   0.04490   0.67370   Biso      1.000     C          -0.108448           
         C3        1.0000    0.26080   0.04320   0.67240   Biso      1.000     C          -0.031093           
         C4        1.0000    0.60460   0.95510   0.17370   Biso      1.000     C          -0.108448           
         C5        1.0000    0.73920   0.95680   0.17240   Biso      1.000     C          -0.031093           
         C6        1.0000    0.81620   0.91150   0.09020   Biso      1.000     C          0.659381  
         C7        1.0000    0.04490   0.60460   0.42370   Biso      1.000     C          -0.108448           
         C8        1.0000    0.04320   0.73920   0.42240   Biso      1.000     C          -0.031093           
         C9        1.0000    0.08850   0.81620   0.34020   Biso      1.000     C          0.659381  
         C10       1.0000    0.95680   0.26080   0.92240   Biso      1.000     C          -0.031093           
         C11       1.0000    0.91150   0.18380   0.84020   Biso      1.000     C          0.659381  
         C12       1.0000    0.08850   0.18380   0.15980   Biso      1.000     C          0.659381  
         C13       1.0000    0.53980   0.00000   0.25000   Biso      1.000     C          -0.029013           
         C14       1.0000    0.80930   0.00000   0.25000   Biso      1.000     C          -0.117052           
         C15       1.0000    0.46020   0.00000   0.75000   Biso      1.000     C          -0.029013           
         C16       1.0000    0.60890   0.00000   0.75000   Biso      1.000     C          0.671009  
         C17       1.0000    0.19070   0.00000   0.75000   Biso      1.000     C          -0.117052           
         C18       1.0000    0.00000   0.53980   0.50000   Biso      1.000     C          -0.029013           
         C19       1.0000    0.00000   0.39110   0.50000   Biso      1.000     C          0.671009  
         C20       1.0000    0.00000   0.80930   0.50000   Biso      1.000     C          -0.117052           
         C21       1.0000    0.00000   0.46020   0.00000   Biso      1.000     C          -0.029013           
         C22       1.0000    0.00000   0.60890   0.00000   Biso      1.000     C          0.671009  
         C23       1.0000    0.00000   0.19070   0.00000   Biso      1.000     C          -0.117052           
         C24       1.0000    0.39110   0.00000   0.25000   Biso      1.000     C          0.671009  
         C25       1.0000    0.04320   0.26080   0.07760   Biso      1.000     C          -0.031094           
         C26       1.0000    0.18380   0.08850   0.59020   Biso      1.000     C          0.659381  
         C27       1.0000    0.91150   0.81620   0.65980   Biso      1.000     C          0.659381  
         C28       1.0000    0.95680   0.73920   0.57760   Biso      1.000     C          -0.031094           
         C29       1.0000    0.95510   0.60460   0.57630   Biso      1.000     C          -0.10844300000000001          
         C30       1.0000    0.18380   0.91150   0.90980   Biso      1.000     C          0.659381  
         C31       1.0000    0.26080   0.95680   0.82760   Biso      1.000     C          -0.031094           
         C32       1.0000    0.39540   0.95510   0.82630   Biso      1.000     C          -0.10844300000000001          
         C33       1.0000    0.81620   0.08850   0.40980   Biso      1.000     C          0.659381  
         C34       1.0000    0.73920   0.04320   0.32760   Biso      1.000     C          -0.031094           
         C35       1.0000    0.60460   0.04490   0.32630   Biso      1.000     C          -0.10844300000000001          
         C36       1.0000    0.04490   0.39540   0.07630   Biso      1.000     C          -0.10844300000000001          
         H1        1.0000    0.55850   0.07620   0.37680   Biso      1.000     H          0.129829  
         H2        1.0000    0.44150   0.92380   0.87680   Biso      1.000     H          0.129829  
         H3        1.0000    0.92380   0.55850   0.62680   Biso      1.000     H          0.129829  
         H4        1.0000    0.07620   0.44150   0.12680   Biso      1.000     H          0.129829  
         H5        1.0000    0.44150   0.07620   0.62320   Biso      1.000     H          0.12983   
         H6        1.0000    0.07620   0.55850   0.37320   Biso      1.000     H          0.12983   
         H7        1.0000    0.55850   0.92380   0.12320   Biso      1.000     H          0.12983   
         H8        1.0000    0.89970   0.00000   0.25000   Biso      1.000     H          0.11700799999999999           
         H9        1.0000    0.10030   0.00000   0.75000   Biso      1.000     H          0.11700799999999999           
         H10       1.0000    0.00000   0.89970   0.50000   Biso      1.000     H          0.11700799999999999           
         H11       1.0000    0.00000   0.10030   0.00000   Biso      1.000     H          0.11700799999999999           
         H12       1.0000    0.92380   0.44150   0.87320   Biso      1.000     H          0.12983   
         O1        1.0000    0.11270   0.06650   0.14970   Biso      1.000     O          -0.644211           
         O2        1.0000    0.24150   0.09550   0.51360   Biso      1.000     O          -0.640039           
         O3        1.0000    0.66380   0.07250   0.69240   Biso      1.000     O          -0.637533           
         O4        1.0000    0.06650   0.11270   0.60030   Biso      1.000     O          -0.644211           
         O5        1.0000    0.75850   0.90450   0.01360   Biso      1.000     O          -0.640039           
         O6        1.0000    0.90450   0.24150   0.76360   Biso      1.000     O          -0.640039           
         O7        1.0000    0.93350   0.88730   0.10030   Biso      1.000     O          -0.644212           
         O8        1.0000    0.11270   0.93350   0.35030   Biso      1.000     O          -0.644211           
         O9        1.0000    0.07250   0.33620   0.44240   Biso      1.000     O          -0.637533           
         O10       1.0000    0.07250   0.66380   0.05760   Biso      1.000     O          -0.637533           
         O11       1.0000    0.09550   0.75850   0.26360   Biso      1.000     O          -0.640039           
         O12       1.0000    0.33620   0.92750   0.19240   Biso      1.000     O          -0.637533           
         O13       1.0000    0.09550   0.24150   0.23640   Biso      1.000     O          -0.6400399999999999           
         O14       1.0000    0.88730   0.06650   0.85030   Biso      1.000     O          -0.644211           
         O15       1.0000    0.92750   0.33620   0.55760   Biso      1.000     O          -0.637533           
         O16       1.0000    0.90450   0.75850   0.73640   Biso      1.000     O          -0.640039           
         O17       1.0000    0.06650   0.88730   0.89970   Biso      1.000     O          -0.644211           
         O18       1.0000    0.66380   0.92750   0.80760   Biso      1.000     O          -0.637533           
         O19       1.0000    0.24150   0.90450   0.98640   Biso      1.000     O          -0.6400399999999999           
         O20       1.0000    0.93350   0.11270   0.39970   Biso      1.000     O          -0.644211           
         O21       1.0000    0.33620   0.07250   0.30760   Biso      1.000     O          -0.637533           
         O22       1.0000    0.75850   0.09550   0.48640   Biso      1.000     O          -0.6400399999999999           
         O23       1.0000    0.92750   0.66380   0.94240   Biso      1.000     O          -0.637532           
         O24       1.0000    0.88730   0.93350   0.64970   Biso      1.000     O          -0.644211           
         Y1        1.0000    0.14915   0.14915   0.37500   Biso      1.000     Y          1.9022709999999998  
         Y2        1.0000    0.85085   0.85085   0.87500   Biso      1.000     Y          1.9022709999999998  
         Y3        1.0000    0.14915   0.85085   0.12500   Biso      1.000     Y          1.9022720000000002  
         Y4        1.0000    0.85085   0.14915   0.62500   Biso      1.000     Y          1.9022709999999998 