
##########################################################################
#               Crystallographic Information Format file
#               Produced by PyCifRW module
#
#  This is a CIF file.  CIF has been adopted by the International
#  Union of Crystallography as the standard for data archiving and
#  transmission.
#
#  For information on this file format, follow the CIF links at
#  http://www.iucr.org
##########################################################################

data_image0

_cell_length_a                          10.32
_cell_length_b                          10.32
_cell_length_c                          14.5
_cell_angle_alpha                       90
_cell_angle_beta                        90
_cell_angle_gamma                       90
_symmetry_space_group_name_H-M          'P 1'
_symmetry_int_tables_number             1
loop_
  _symmetry_equiv_pos_as_xyz
         'x, y, z' 
loop_
  _atom_site_label
  _atom_site_occupancy
  _atom_site_fract_x
  _atom_site_fract_y
  _atom_site_fract_z
  _atom_site_thermal_displace_type
  _atom_site_B_iso_or_equiv
  _atom_site_type_symbol
  _atom_site_charge
         C1        1.0000    0.60420   0.04310   0.32730   Biso      1.000     C          -0.108259           
         C2        1.0000    0.04360   0.73910   0.42290   Biso      1.000     C          -0.027324           
         C3        1.0000    0.08700   0.81460   0.33890   Biso      1.000     C          0.689127  
         C4        1.0000    0.60420   0.95690   0.17270   Biso      1.000     C          -0.108259           
         C5        1.0000    0.73910   0.95640   0.17290   Biso      1.000     C          -0.027324           
         C6        1.0000    0.81460   0.91300   0.08890   Biso      1.000     C          0.689127  
         C7        1.0000    0.39580   0.04310   0.67270   Biso      1.000     C          -0.108259           
         C8        1.0000    0.04310   0.60420   0.42270   Biso      1.000     C          -0.10826  
         C9        1.0000    0.26090   0.04360   0.67290   Biso      1.000     C          -0.027324           
         C10       1.0000    0.04310   0.39580   0.07730   Biso      1.000     C          -0.108259           
         C11       1.0000    0.04360   0.26090   0.07710   Biso      1.000     C          -0.027325           
         C12       1.0000    0.08700   0.18540   0.16110   Biso      1.000     C          0.689127  
         C13       1.0000    0.95690   0.60420   0.57730   Biso      1.000     C          -0.108259           
         C14       1.0000    0.95640   0.73910   0.57710   Biso      1.000     C          -0.027324           
         C15       1.0000    0.91300   0.81460   0.66110   Biso      1.000     C          0.689127  
         C16       1.0000    0.18540   0.08700   0.58890   Biso      1.000     C          0.689127  
         C17       1.0000    0.91300   0.18540   0.83890   Biso      1.000     C          0.689127  
         C18       1.0000    0.95640   0.26090   0.92290   Biso      1.000     C          -0.027324           
         C19       1.0000    0.95690   0.39580   0.92270   Biso      1.000     C          -0.10826  
         C20       1.0000    0.19300   0.00000   0.75000   Biso      1.000     C          -0.11493099999999999          
         C21       1.0000    0.61040   0.00000   0.75000   Biso      1.000     C          0.709431  
         C22       1.0000    0.46270   0.00000   0.75000   Biso      1.000     C          -0.03244  
         C23       1.0000    0.80700   0.00000   0.25000   Biso      1.000     C          -0.11493099999999999          
         C24       1.0000    0.38960   0.00000   0.25000   Biso      1.000     C          0.709431  
         C25       1.0000    0.53730   0.00000   0.25000   Biso      1.000     C          -0.032441000000000005         
         C26       1.0000    0.00000   0.80700   0.50000   Biso      1.000     C          -0.11493099999999999          
         C27       1.0000    0.00000   0.38960   0.50000   Biso      1.000     C          0.709431  
         C28       1.0000    0.00000   0.53730   0.50000   Biso      1.000     C          -0.032441000000000005         
         C29       1.0000    0.00000   0.19300   0.00000   Biso      1.000     C          -0.11493099999999999          
         C30       1.0000    0.00000   0.61040   0.00000   Biso      1.000     C          0.709431  
         C31       1.0000    0.00000   0.46270   0.00000   Biso      1.000     C          -0.032441000000000005         
         C32       1.0000    0.81460   0.08700   0.41110   Biso      1.000     C          0.689127  
         C33       1.0000    0.73910   0.04360   0.32710   Biso      1.000     C          -0.027325           
         C34       1.0000    0.18540   0.91300   0.91110   Biso      1.000     C          0.689127  
         C35       1.0000    0.39580   0.95690   0.82730   Biso      1.000     C          -0.10826  
         C36       1.0000    0.26090   0.95640   0.82710   Biso      1.000     C          -0.027325           
         Dy1       1.0000    0.85213   0.85213   0.87500   Biso      1.000     Dy          2.222115  
         Dy2       1.0000    0.85213   0.14787   0.62500   Biso      1.000     Dy          2.222115  
         Dy3       1.0000    0.14787   0.14787   0.37500   Biso      1.000     Dy          2.222115  
         Dy4       1.0000    0.14787   0.85213   0.12500   Biso      1.000     Dy          2.222115  
         H1        1.0000    0.92850   0.44110   0.87110   Biso      1.000     H          0.13229100000000002           
         H2        1.0000    0.07150   0.55890   0.37110   Biso      1.000     H          0.13229100000000002           
         H3        1.0000    0.44110   0.07150   0.62110   Biso      1.000     H          0.13229100000000002           
         H4        1.0000    0.07150   0.44110   0.12890   Biso      1.000     H          0.13229100000000002           
         H5        1.0000    0.55890   0.92850   0.12110   Biso      1.000     H          0.13229100000000002           
         H6        1.0000    0.44110   0.92850   0.87890   Biso      1.000     H          0.13229100000000002           
         H7        1.0000    0.55890   0.07150   0.37890   Biso      1.000     H          0.13229100000000002           
         H8        1.0000    0.00000   0.10290   0.00000   Biso      1.000     H          0.11405799999999999           
         H9        1.0000    0.00000   0.89710   0.50000   Biso      1.000     H          0.11405799999999999           
         H10       1.0000    0.89710   0.00000   0.25000   Biso      1.000     H          0.11405799999999999           
         H11       1.0000    0.92850   0.55890   0.62890   Biso      1.000     H          0.13229100000000002           
         H12       1.0000    0.10290   0.00000   0.75000   Biso      1.000     H          0.11405799999999999           
         O1        1.0000    0.89040   0.93070   0.65140   Biso      1.000     O          -0.723082           
         O2        1.0000    0.10960   0.06930   0.15140   Biso      1.000     O          -0.723082           
         O3        1.0000    0.90480   0.75640   0.73570   Biso      1.000     O          -0.699986           
         O4        1.0000    0.92910   0.33640   0.55840   Biso      1.000     O          -0.711882           
         O5        1.0000    0.33640   0.07090   0.30840   Biso      1.000     O          -0.711882           
         O6        1.0000    0.66360   0.92910   0.80840   Biso      1.000     O          -0.711882           
         O7        1.0000    0.06930   0.89040   0.90140   Biso      1.000     O          -0.723082           
         O8        1.0000    0.75640   0.09520   0.48570   Biso      1.000     O          -0.699986           
         O9        1.0000    0.07090   0.66360   0.05840   Biso      1.000     O          -0.711882           
         O10       1.0000    0.24360   0.90480   0.98570   Biso      1.000     O          -0.699986           
         O11       1.0000    0.09520   0.24360   0.23570   Biso      1.000     O          -0.699986           
         O12       1.0000    0.07090   0.33640   0.44160   Biso      1.000     O          -0.711882           
         O13       1.0000    0.66360   0.07090   0.69160   Biso      1.000     O          -0.711882           
         O14       1.0000    0.24360   0.09520   0.51430   Biso      1.000     O          -0.699986           
         O15       1.0000    0.93070   0.89040   0.09860   Biso      1.000     O          -0.723082           
         O16       1.0000    0.33640   0.92910   0.19160   Biso      1.000     O          -0.711882           
         O17       1.0000    0.75640   0.90480   0.01430   Biso      1.000     O          -0.699986           
         O18       1.0000    0.10960   0.93070   0.34860   Biso      1.000     O          -0.723082           
         O19       1.0000    0.09520   0.75640   0.26430   Biso      1.000     O          -0.699986           
         O20       1.0000    0.89040   0.06930   0.84860   Biso      1.000     O          -0.723082           
         O21       1.0000    0.92910   0.66360   0.94160   Biso      1.000     O          -0.711882           
         O22       1.0000    0.90480   0.24360   0.76430   Biso      1.000     O          -0.699986           
         O23       1.0000    0.06930   0.10960   0.59860   Biso      1.000     O          -0.7230810000000001           
         O24       1.0000    0.93070   0.10960   0.40140   Biso      1.000     O          -0.723082 