
##########################################################################
#               Crystallographic Information Format file
#               Produced by PyCifRW module
#
#  This is a CIF file.  CIF has been adopted by the International
#  Union of Crystallography as the standard for data archiving and
#  transmission.
#
#  For information on this file format, follow the CIF links at
#  http://www.iucr.org
##########################################################################

data_image0

_cell_length_a                          10.267
_cell_length_b                          10.267
_cell_length_c                          14.462
_cell_angle_alpha                       90
_cell_angle_beta                        90
_cell_angle_gamma                       90
_symmetry_space_group_name_H-M          'P 1'
_symmetry_int_tables_number             1
loop_
  _symmetry_equiv_pos_as_xyz
         'x, y, z' 
loop_
  _atom_site_label
  _atom_site_occupancy
  _atom_site_fract_x
  _atom_site_fract_y
  _atom_site_fract_z
  _atom_site_thermal_displace_type
  _atom_site_B_iso_or_equiv
  _atom_site_type_symbol
  _atom_site_charge
         C1        1.0000    0.60330   0.04440   0.32710   Biso      1.000     C          -0.101654           
         C2        1.0000    0.04380   0.73920   0.42270   Biso      1.000     C          -0.029276999999999997         
         C3        1.0000    0.08680   0.81600   0.33950   Biso      1.000     C          0.691499  
         C4        1.0000    0.60330   0.95560   0.17290   Biso      1.000     C          -0.101654           
         C5        1.0000    0.73920   0.95620   0.17270   Biso      1.000     C          -0.029276999999999997         
         C6        1.0000    0.81600   0.91320   0.08950   Biso      1.000     C          0.691497  
         C7        1.0000    0.39670   0.04440   0.67290   Biso      1.000     C          -0.101658           
         C8        1.0000    0.04440   0.60330   0.42290   Biso      1.000     C          -0.101654           
         C9        1.0000    0.26080   0.04380   0.67270   Biso      1.000     C          -0.029271           
         C10       1.0000    0.04440   0.39670   0.07710   Biso      1.000     C          -0.101658           
         C11       1.0000    0.04380   0.26080   0.07730   Biso      1.000     C          -0.029271           
         C12       1.0000    0.08680   0.18400   0.16050   Biso      1.000     C          0.691484  
         C13       1.0000    0.95560   0.60330   0.57710   Biso      1.000     C          -0.101655           
         C14       1.0000    0.95620   0.73920   0.57730   Biso      1.000     C          -0.029276999999999997         
         C15       1.0000    0.91320   0.81600   0.66050   Biso      1.000     C          0.691497  
         C16       1.0000    0.18400   0.08680   0.58950   Biso      1.000     C          0.691484  
         C17       1.0000    0.91320   0.18400   0.83950   Biso      1.000     C          0.691495  
         C18       1.0000    0.95620   0.26080   0.92270   Biso      1.000     C          -0.029269999999999997         
         C19       1.0000    0.95560   0.39670   0.92290   Biso      1.000     C          -0.101659           
         C20       1.0000    0.19300   0.00000   0.75000   Biso      1.000     C          -0.110873           
         C21       1.0000    0.61060   0.00000   0.75000   Biso      1.000     C          0.710907  
         C22       1.0000    0.46510   0.00000   0.75000   Biso      1.000     C          -0.032397           
         C23       1.0000    0.80700   0.00000   0.25000   Biso      1.000     C          -0.110877           
         C24       1.0000    0.38940   0.00000   0.25000   Biso      1.000     C          0.710878  
         C25       1.0000    0.53490   0.00000   0.25000   Biso      1.000     C          -0.032385000000000004         
         C26       1.0000    0.00000   0.80700   0.50000   Biso      1.000     C          -0.110877           
         C27       1.0000    0.00000   0.38940   0.50000   Biso      1.000     C          0.710878  
         C28       1.0000    0.00000   0.53490   0.50000   Biso      1.000     C          -0.032385000000000004         
         C29       1.0000    0.00000   0.19300   0.00000   Biso      1.000     C          -0.110872           
         C30       1.0000    0.00000   0.61060   0.00000   Biso      1.000     C          0.710907  
         C31       1.0000    0.00000   0.46510   0.00000   Biso      1.000     C          -0.032397           
         C32       1.0000    0.81600   0.08680   0.41050   Biso      1.000     C          0.691499  
         C33       1.0000    0.73920   0.04380   0.32730   Biso      1.000     C          -0.029276999999999997         
         C34       1.0000    0.18400   0.91320   0.91050   Biso      1.000     C          0.691495  
         C35       1.0000    0.39670   0.95560   0.82710   Biso      1.000     C          -0.101659           
         C36       1.0000    0.26080   0.95620   0.82730   Biso      1.000     C          -0.029269999999999997         
         Er1       1.0000    0.85258   0.85258   0.87500   Biso      1.000     Er          2.227405  
         Er2       1.0000    0.85258   0.14741   0.62500   Biso      1.000     Er          2.227421  
         Er3       1.0000    0.14741   0.14741   0.37500   Biso      1.000     Er          2.227398  
         Er4       1.0000    0.14741   0.85258   0.12500   Biso      1.000     Er          2.2274220000000002  
         H1        1.0000    0.92540   0.44180   0.87140   Biso      1.000     H          0.131642  
         H2        1.0000    0.07460   0.55820   0.37140   Biso      1.000     H          0.131645  
         H3        1.0000    0.44180   0.07460   0.62140   Biso      1.000     H          0.131643  
         H4        1.0000    0.07460   0.44180   0.12860   Biso      1.000     H          0.131643  
         H5        1.0000    0.55820   0.92540   0.12140   Biso      1.000     H          0.131643  
         H6        1.0000    0.44180   0.92540   0.87860   Biso      1.000     H          0.131642  
         H7        1.0000    0.55820   0.07460   0.37860   Biso      1.000     H          0.131644  
         H8        1.0000    0.00000   0.10250   0.00000   Biso      1.000     H          0.11381   
         H9        1.0000    0.00000   0.89750   0.50000   Biso      1.000     H          0.11380499999999999           
         H10       1.0000    0.89750   0.00000   0.25000   Biso      1.000     H          0.113804  
         H11       1.0000    0.92540   0.55820   0.62860   Biso      1.000     H          0.131644  
         H12       1.0000    0.10250   0.00000   0.75000   Biso      1.000     H          0.113811  
         O1        1.0000    0.88840   0.93200   0.65040   Biso      1.000     O          -0.717532           
         O2        1.0000    0.11160   0.06800   0.15040   Biso      1.000     O          -0.717504           
         O3        1.0000    0.90570   0.75860   0.73714   Biso      1.000     O          -0.71391  
         O4        1.0000    0.92810   0.33470   0.55825   Biso      1.000     O          -0.715178           
         O5        1.0000    0.33470   0.07190   0.30825   Biso      1.000     O          -0.7151810000000001           
         O6        1.0000    0.66530   0.92810   0.80825   Biso      1.000     O          -0.715187           
         O7        1.0000    0.06800   0.88840   0.90040   Biso      1.000     O          -0.7175239999999999           
         O8        1.0000    0.75860   0.09430   0.48714   Biso      1.000     O          -0.71392  
         O9        1.0000    0.07190   0.66530   0.05825   Biso      1.000     O          -0.715206           
         O10       1.0000    0.24140   0.90570   0.98714   Biso      1.000     O          -0.713936           
         O11       1.0000    0.09430   0.24140   0.23714   Biso      1.000     O          -0.71392  
         O12       1.0000    0.07190   0.33470   0.44175   Biso      1.000     O          -0.7151810000000001           
         O13       1.0000    0.66530   0.07190   0.69175   Biso      1.000     O          -0.715206           
         O14       1.0000    0.24140   0.09430   0.51286   Biso      1.000     O          -0.71392  
         O15       1.0000    0.93200   0.88840   0.09960   Biso      1.000     O          -0.717532           
         O16       1.0000    0.33470   0.92810   0.19175   Biso      1.000     O          -0.715179           
         O17       1.0000    0.75860   0.90570   0.01286   Biso      1.000     O          -0.71391  
         O18       1.0000    0.11160   0.93200   0.34960   Biso      1.000     O          -0.7175199999999999           
         O19       1.0000    0.09430   0.75860   0.26286   Biso      1.000     O          -0.71392  
         O20       1.0000    0.88840   0.06800   0.84960   Biso      1.000     O          -0.717525           
         O21       1.0000    0.92810   0.66530   0.94175   Biso      1.000     O          -0.715187           
         O22       1.0000    0.90570   0.24140   0.76286   Biso      1.000     O          -0.713936           
         O23       1.0000    0.06800   0.11160   0.59960   Biso      1.000     O          -0.717503           
         O24       1.0000    0.93200   0.11160   0.40040   Biso      1.000     O          -0.7175189999999999 