
##########################################################################
#               Crystallographic Information Format file
#               Produced by PyCifRW module
#
#  This is a CIF file.  CIF has been adopted by the International
#  Union of Crystallography as the standard for data archiving and
#  transmission.
#
#  For information on this file format, follow the CIF links at
#  http://www.iucr.org
##########################################################################

data_image0

_cell_length_a                          10.24
_cell_length_b                          10.24
_cell_length_c                          14.42
_cell_angle_alpha                       90
_cell_angle_beta                        90
_cell_angle_gamma                       90
_symmetry_space_group_name_H-M          'P 1'
_symmetry_int_tables_number             1
loop_
  _symmetry_equiv_pos_as_xyz
         'x, y, z' 
loop_
  _atom_site_label
  _atom_site_occupancy
  _atom_site_fract_x
  _atom_site_fract_y
  _atom_site_fract_z
  _atom_site_thermal_displace_type
  _atom_site_B_iso_or_equiv
  _atom_site_type_symbol
  _atom_site_charge
         C1        1.0000    0.68220   0.58900   0.91100   Biso      1.000     C          0.617241  
         C2        1.0000    0.58900   0.31780   0.16100   Biso      1.000     C          0.61724   
         C3        1.0000    0.54460   0.10420   0.07750   Biso      1.000     C          -0.114675           
         C4        1.0000    0.41100   0.68220   0.66100   Biso      1.000     C          0.617241  
         C5        1.0000    0.45540   0.89580   0.57750   Biso      1.000     C          -0.114676           
         C6        1.0000    0.45650   0.76020   0.57740   Biso      1.000     C          -0.010012           
         C7        1.0000    0.31780   0.41100   0.41100   Biso      1.000     C          0.617241  
         C8        1.0000    0.10420   0.45540   0.32750   Biso      1.000     C          -0.114675           
         C9        1.0000    0.23980   0.45650   0.32740   Biso      1.000     C          -0.010012           
         C10       1.0000    0.89580   0.54460   0.82750   Biso      1.000     C          -0.114676           
         C11       1.0000    0.76020   0.54350   0.82740   Biso      1.000     C          -0.010012           
         C12       1.0000    0.23980   0.54350   0.17260   Biso      1.000     C          -0.010011           
         C13       1.0000    0.50000   0.88840   0.00000   Biso      1.000     C          0.61516   
         C14       1.0000    0.50000   0.30810   0.00000   Biso      1.000     C          -0.119713           
         C15       1.0000    0.50000   0.11160   0.50000   Biso      1.000     C          0.61516   
         C16       1.0000    0.50000   0.96430   0.50000   Biso      1.000     C          -0.005178           
         C17       1.0000    0.50000   0.69190   0.50000   Biso      1.000     C          -0.119713           
         C18       1.0000    0.11160   0.50000   0.75000   Biso      1.000     C          0.615161  
         C19       1.0000    0.96430   0.50000   0.75000   Biso      1.000     C          -0.005178           
         C20       1.0000    0.69190   0.50000   0.75000   Biso      1.000     C          -0.119713           
         C21       1.0000    0.88840   0.50000   0.25000   Biso      1.000     C          0.615161  
         C22       1.0000    0.03570   0.50000   0.25000   Biso      1.000     C          -0.005178           
         C23       1.0000    0.30810   0.50000   0.25000   Biso      1.000     C          -0.119714           
         C24       1.0000    0.50000   0.03570   0.00000   Biso      1.000     C          -0.005178           
         C25       1.0000    0.10420   0.54460   0.17250   Biso      1.000     C          -0.114677           
         C26       1.0000    0.54350   0.23980   0.07740   Biso      1.000     C          -0.010012           
         C27       1.0000    0.76020   0.45650   0.67260   Biso      1.000     C          -0.010011           
         C28       1.0000    0.89580   0.45540   0.67250   Biso      1.000     C          -0.114677           
         C29       1.0000    0.68220   0.41100   0.58900   Biso      1.000     C          0.617241  
         C30       1.0000    0.54350   0.76020   0.42260   Biso      1.000     C          -0.010011           
         C31       1.0000    0.54460   0.89580   0.42250   Biso      1.000     C          -0.114677           
         C32       1.0000    0.58900   0.68220   0.33900   Biso      1.000     C          0.617241  
         C33       1.0000    0.45650   0.23980   0.92260   Biso      1.000     C          -0.010011           
         C34       1.0000    0.45540   0.10420   0.92250   Biso      1.000     C          -0.114678           
         C35       1.0000    0.41100   0.31780   0.83900   Biso      1.000     C          0.617241  
         C36       1.0000    0.31780   0.58900   0.08900   Biso      1.000     C          0.61724   
         H1        1.0000    0.42510   0.05900   0.87090   Biso      1.000     H          0.135234  
         H2        1.0000    0.57490   0.94100   0.37090   Biso      1.000     H          0.135234  
         H3        1.0000    0.94100   0.42510   0.62090   Biso      1.000     H          0.135234  
         H4        1.0000    0.05900   0.57490   0.12090   Biso      1.000     H          0.135235  
         H5        1.0000    0.57490   0.05900   0.12910   Biso      1.000     H          0.135234  
         H6        1.0000    0.05900   0.42510   0.37910   Biso      1.000     H          0.135234  
         H7        1.0000    0.42510   0.94100   0.62910   Biso      1.000     H          0.135234  
         H8        1.0000    0.50000   0.39890   0.00000   Biso      1.000     H          0.121249  
         H9        1.0000    0.50000   0.60110   0.50000   Biso      1.000     H          0.121248  
         H10       1.0000    0.60110   0.50000   0.75000   Biso      1.000     H          0.121249  
         H11       1.0000    0.39890   0.50000   0.25000   Biso      1.000     H          0.121248  
         H12       1.0000    0.94100   0.57490   0.87910   Biso      1.000     H          0.135234  
         O1        1.0000    0.25980   0.59510   0.01240   Biso      1.000     O          -0.553129           
         O2        1.0000    0.57390   0.83400   0.05860   Biso      1.000     O          -0.527578           
         O3        1.0000    0.61240   0.43380   0.14980   Biso      1.000     O          -0.530438           
         O4        1.0000    0.59510   0.25980   0.23760   Biso      1.000     O          -0.553129           
         O5        1.0000    0.42610   0.16600   0.55860   Biso      1.000     O          -0.527575           
         O6        1.0000    0.16600   0.57390   0.80860   Biso      1.000     O          -0.527577           
         O7        1.0000    0.40490   0.74020   0.73760   Biso      1.000     O          -0.553129           
         O8        1.0000    0.25980   0.40490   0.48760   Biso      1.000     O          -0.553131           
         O9        1.0000    0.43380   0.38760   0.39980   Biso      1.000     O          -0.53044  
         O10       1.0000    0.43380   0.61240   0.10020   Biso      1.000     O          -0.530438           
         O11       1.0000    0.83400   0.42610   0.30860   Biso      1.000     O          -0.527578           
         O12       1.0000    0.38760   0.56620   0.64980   Biso      1.000     O          -0.530441           
         O13       1.0000    0.83400   0.57390   0.19140   Biso      1.000     O          -0.527576           
         O14       1.0000    0.74020   0.59510   0.98760   Biso      1.000     O          -0.553131           
         O15       1.0000    0.56620   0.38760   0.60020   Biso      1.000     O          -0.530438           
         O16       1.0000    0.16600   0.42610   0.69140   Biso      1.000     O          -0.527579           
         O17       1.0000    0.59510   0.74020   0.26240   Biso      1.000     O          -0.553131           
         O18       1.0000    0.61240   0.56620   0.35020   Biso      1.000     O          -0.53044  
         O19       1.0000    0.57390   0.16600   0.44140   Biso      1.000     O          -0.527579           
         O20       1.0000    0.40490   0.25980   0.76240   Biso      1.000     O          -0.553131           
         O21       1.0000    0.38760   0.43380   0.85020   Biso      1.000     O          -0.530441           
         O22       1.0000    0.42610   0.83400   0.94140   Biso      1.000     O          -0.527576           
         O23       1.0000    0.56620   0.61240   0.89980   Biso      1.000     O          -0.53044  
         O24       1.0000    0.74020   0.40490   0.51240   Biso      1.000     O          -0.553133           
         Yb1       1.0000    0.64785   0.64785   0.12500   Biso      1.000     Yb          1.355201  
         Yb2       1.0000    0.35215   0.35215   0.62500   Biso      1.000     Yb          1.355203  
         Yb3       1.0000    0.64785   0.35215   0.37500   Biso      1.000     Yb          1.355202  
         Yb4       1.0000    0.35215   0.64785   0.87500   Biso      1.000     Yb          1.355201 