
##########################################################################
#               Crystallographic Information Format file
#               Produced by PyCifRW module
#
#  This is a CIF file.  CIF has been adopted by the International
#  Union of Crystallography as the standard for data archiving and
#  transmission.
#
#  For information on this file format, follow the CIF links at
#  http://www.iucr.org
##########################################################################

data_image0

_cell_length_a                          10.33
_cell_length_b                          10.33
_cell_length_c                          14.51
_cell_angle_alpha                       90
_cell_angle_beta                        90
_cell_angle_gamma                       90
_symmetry_space_group_name_H-M          'P 1'
_symmetry_int_tables_number             1
loop_
  _symmetry_equiv_pos_as_xyz
         'x, y, z' 
loop_
  _atom_site_label
  _atom_site_occupancy
  _atom_site_fract_x
  _atom_site_fract_y
  _atom_site_fract_z
  _atom_site_thermal_displace_type
  _atom_site_B_iso_or_equiv
  _atom_site_type_symbol
  _atom_site_charge
         C1        1.0000    0.60380   0.04300   0.32730   Biso      1.000     C          -0.103137           
         C2        1.0000    0.04300   0.39620   0.07730   Biso      1.000     C          -0.103137           
         C3        1.0000    0.04280   0.26160   0.07770   Biso      1.000     C          -0.027567           
         C4        1.0000    0.95700   0.60380   0.57730   Biso      1.000     C          -0.103137           
         C5        1.0000    0.95720   0.73840   0.57770   Biso      1.000     C          -0.027567           
         C6        1.0000    0.91440   0.81380   0.66040   Biso      1.000     C          0.689194  
         C7        1.0000    0.39620   0.95700   0.82730   Biso      1.000     C          -0.103137           
         C8        1.0000    0.26160   0.95720   0.82770   Biso      1.000     C          -0.027567           
         C9        1.0000    0.18620   0.91440   0.91040   Biso      1.000     C          0.689194  
         C10       1.0000    0.73840   0.04280   0.32770   Biso      1.000     C          -0.027567           
         C11       1.0000    0.81380   0.08560   0.41040   Biso      1.000     C          0.689194  
         C12       1.0000    0.18620   0.08560   0.58960   Biso      1.000     C          0.689194  
         C13       1.0000    0.00000   0.46400   0.00000   Biso      1.000     C          -0.033787           
         C14       1.0000    0.00000   0.19450   0.00000   Biso      1.000     C          -0.112837           
         C15       1.0000    0.00000   0.53600   0.50000   Biso      1.000     C          -0.033787           
         C16       1.0000    0.00000   0.39060   0.50000   Biso      1.000     C          0.706551  
         C17       1.0000    0.00000   0.80550   0.50000   Biso      1.000     C          -0.112837           
         C18       1.0000    0.53600   0.00000   0.25000   Biso      1.000     C          -0.033787           
         C19       1.0000    0.39060   0.00000   0.25000   Biso      1.000     C          0.706551  
         C20       1.0000    0.80550   0.00000   0.25000   Biso      1.000     C          -0.112837           
         C21       1.0000    0.46400   0.00000   0.75000   Biso      1.000     C          -0.033787           
         C22       1.0000    0.60940   0.00000   0.75000   Biso      1.000     C          0.706551  
         C23       1.0000    0.19450   0.00000   0.75000   Biso      1.000     C          -0.112837           
         C24       1.0000    0.00000   0.60940   0.00000   Biso      1.000     C          0.706551  
         C25       1.0000    0.26160   0.04280   0.67230   Biso      1.000     C          -0.027567           
         C26       1.0000    0.08560   0.18620   0.16040   Biso      1.000     C          0.689194  
         C27       1.0000    0.81380   0.91440   0.08960   Biso      1.000     C          0.689194  
         C28       1.0000    0.73840   0.95720   0.17230   Biso      1.000     C          -0.027567           
         C29       1.0000    0.60380   0.95700   0.17270   Biso      1.000     C          -0.103137           
         C30       1.0000    0.08560   0.81380   0.33960   Biso      1.000     C          0.689194  
         C31       1.0000    0.04280   0.73840   0.42230   Biso      1.000     C          -0.027567           
         C32       1.0000    0.04300   0.60380   0.42270   Biso      1.000     C          -0.103137           
         C33       1.0000    0.91440   0.18620   0.83960   Biso      1.000     C          0.689194  
         C34       1.0000    0.95720   0.26160   0.92230   Biso      1.000     C          -0.027567           
         C35       1.0000    0.95700   0.39620   0.92270   Biso      1.000     C          -0.103137           
         C36       1.0000    0.39620   0.04300   0.67270   Biso      1.000     C          -0.103137           
         H1        1.0000    0.92810   0.44130   0.87120   Biso      1.000     H          0.131717  
         H2        1.0000    0.07190   0.55870   0.37120   Biso      1.000     H          0.131717  
         H3        1.0000    0.55870   0.92810   0.12120   Biso      1.000     H          0.131717  
         H4        1.0000    0.44130   0.07190   0.62120   Biso      1.000     H          0.131717  
         H5        1.0000    0.07190   0.44130   0.12880   Biso      1.000     H          0.131717  
         H6        1.0000    0.44130   0.92810   0.87880   Biso      1.000     H          0.131717  
         H7        1.0000    0.92810   0.55870   0.62880   Biso      1.000     H          0.131717  
         H8        1.0000    0.00000   0.10440   0.00000   Biso      1.000     H          0.112865  
         H9        1.0000    0.00000   0.89560   0.50000   Biso      1.000     H          0.112865  
         H10       1.0000    0.89560   0.00000   0.25000   Biso      1.000     H          0.112865  
         H11       1.0000    0.10440   0.00000   0.75000   Biso      1.000     H          0.112865  
         H12       1.0000    0.55870   0.07190   0.37880   Biso      1.000     H          0.131717  
         O1        1.0000    0.07090   0.10900   0.59790   Biso      1.000     O          -0.716737           
         O2        1.0000    0.09240   0.24400   0.23611   Biso      1.000     O          -0.707959           
         O3        1.0000    0.06950   0.66410   0.05880   Biso      1.000     O          -0.711012           
         O4        1.0000    0.10900   0.07090   0.15210   Biso      1.000     O          -0.716737           
         O5        1.0000    0.90760   0.75600   0.73611   Biso      1.000     O          -0.707959           
         O6        1.0000    0.75600   0.09240   0.48611   Biso      1.000     O          -0.70796  
         O7        1.0000    0.89100   0.92910   0.65210   Biso      1.000     O          -0.716737           
         O8        1.0000    0.07090   0.89100   0.90210   Biso      1.000     O          -0.716737           
         O9        1.0000    0.66410   0.93050   0.80880   Biso      1.000     O          -0.711012           
         O10       1.0000    0.66410   0.06950   0.69120   Biso      1.000     O          -0.711012           
         O11       1.0000    0.24400   0.90760   0.98611   Biso      1.000     O          -0.707959           
         O12       1.0000    0.93050   0.33590   0.55880   Biso      1.000     O          -0.711012           
         O13       1.0000    0.24400   0.09240   0.51389   Biso      1.000     O          -0.707959           
         O14       1.0000    0.92910   0.10900   0.40210   Biso      1.000     O          -0.716737           
         O15       1.0000    0.33590   0.93050   0.19120   Biso      1.000     O          -0.711012           
         O16       1.0000    0.75600   0.90760   0.01389   Biso      1.000     O          -0.707959           
         O17       1.0000    0.10900   0.92910   0.34790   Biso      1.000     O          -0.716737           
         O18       1.0000    0.06950   0.33590   0.44120   Biso      1.000     O          -0.711012           
         O19       1.0000    0.09240   0.75600   0.26389   Biso      1.000     O          -0.707959           
         O20       1.0000    0.89100   0.07090   0.84790   Biso      1.000     O          -0.716737           
         O21       1.0000    0.93050   0.66410   0.94120   Biso      1.000     O          -0.711012           
         O22       1.0000    0.90760   0.24400   0.76389   Biso      1.000     O          -0.70796  
         O23       1.0000    0.33590   0.06950   0.30880   Biso      1.000     O          -0.711012           
         O24       1.0000    0.92910   0.89100   0.09790   Biso      1.000     O          -0.716737           
         Tb1       1.0000    0.85298   0.14702   0.62500   Biso      1.000     Tb          2.21821   
         Tb2       1.0000    0.14702   0.85298   0.12500   Biso      1.000     Tb          2.218209  
         Tb3       1.0000    0.14702   0.14702   0.37500   Biso      1.000     Tb          2.218209  
         Tb4       1.0000    0.85298   0.85298   0.87500   Biso      1.000     Tb          2.21821 