
##########################################################################
#               Crystallographic Information Format file
#               Produced by PyCifRW module
#
#  This is a CIF file.  CIF has been adopted by the International
#  Union of Crystallography as the standard for data archiving and
#  transmission.
#
#  For information on this file format, follow the CIF links at
#  http://www.iucr.org
##########################################################################

data_image0

_cell_length_a                          10.27
_cell_length_b                          10.27
_cell_length_c                          14.46
_cell_angle_alpha                       90
_cell_angle_beta                        90
_cell_angle_gamma                       90
_symmetry_space_group_name_H-M          'P 1'
_symmetry_int_tables_number             1
loop_
  _symmetry_equiv_pos_as_xyz
         'x, y, z' 
loop_
  _atom_site_label
  _atom_site_occupancy
  _atom_site_fract_x
  _atom_site_fract_y
  _atom_site_fract_z
  _atom_site_thermal_displace_type
  _atom_site_B_iso_or_equiv
  _atom_site_type_symbol
  _atom_site_charge
         C1        1.0000    0.68340   0.58780   0.91070   Biso      1.000     C          0.6905439999999999  
         C2        1.0000    0.54460   0.89540   0.42280   Biso      1.000     C          -0.10613399999999999          
         C3        1.0000    0.54320   0.76000   0.42270   Biso      1.000     C          -0.027469999999999998         
         C4        1.0000    0.68340   0.41220   0.58930   Biso      1.000     C          0.6905439999999999  
         C5        1.0000    0.89540   0.45540   0.67280   Biso      1.000     C          -0.106135           
         C6        1.0000    0.76000   0.45680   0.67270   Biso      1.000     C          -0.027469999999999998         
         C7        1.0000    0.31660   0.58780   0.08930   Biso      1.000     C          0.6905439999999999  
         C8        1.0000    0.58780   0.68340   0.33930   Biso      1.000     C          0.690545  
         C9        1.0000    0.10460   0.54460   0.17280   Biso      1.000     C          -0.106135           
         C10       1.0000    0.58780   0.31660   0.16070   Biso      1.000     C          0.690545  
         C11       1.0000    0.54460   0.10460   0.07720   Biso      1.000     C          -0.10613399999999999          
         C12       1.0000    0.54320   0.24000   0.07730   Biso      1.000     C          -0.027469999999999998         
         C13       1.0000    0.41220   0.68340   0.66070   Biso      1.000     C          0.6905439999999999  
         C14       1.0000    0.45540   0.89540   0.57720   Biso      1.000     C          -0.106135           
         C15       1.0000    0.45680   0.76000   0.57730   Biso      1.000     C          -0.027469999999999998         
         C16       1.0000    0.24000   0.54320   0.17270   Biso      1.000     C          -0.027469999999999998         
         C17       1.0000    0.45680   0.24000   0.92270   Biso      1.000     C          -0.027469           
         C18       1.0000    0.45540   0.10460   0.92280   Biso      1.000     C          -0.106135           
         C19       1.0000    0.41220   0.31660   0.83930   Biso      1.000     C          0.6905439999999999  
         C20       1.0000    0.30870   0.50000   0.25000   Biso      1.000     C          -0.11436600000000001          
         C21       1.0000    0.03740   0.50000   0.25000   Biso      1.000     C          -0.031536           
         C22       1.0000    0.88970   0.50000   0.25000   Biso      1.000     C          0.709695  
         C23       1.0000    0.69130   0.50000   0.75000   Biso      1.000     C          -0.11436600000000001          
         C24       1.0000    0.96260   0.50000   0.75000   Biso      1.000     C          -0.031535           
         C25       1.0000    0.11030   0.50000   0.75000   Biso      1.000     C          0.7096939999999999  
         C26       1.0000    0.50000   0.69130   0.50000   Biso      1.000     C          -0.11436600000000001          
         C27       1.0000    0.50000   0.96260   0.50000   Biso      1.000     C          -0.031535           
         C28       1.0000    0.50000   0.11030   0.50000   Biso      1.000     C          0.709695  
         C29       1.0000    0.50000   0.30870   0.00000   Biso      1.000     C          -0.11436600000000001          
         C30       1.0000    0.50000   0.03740   0.00000   Biso      1.000     C          -0.031535           
         C31       1.0000    0.50000   0.88970   0.00000   Biso      1.000     C          0.709695  
         C32       1.0000    0.76000   0.54320   0.82730   Biso      1.000     C          -0.027469999999999998         
         C33       1.0000    0.89540   0.54460   0.82720   Biso      1.000     C          -0.106135           
         C34       1.0000    0.24000   0.45680   0.32730   Biso      1.000     C          -0.027469999999999998         
         C35       1.0000    0.31660   0.41220   0.41070   Biso      1.000     C          0.6905439999999999  
         C36       1.0000    0.10460   0.45540   0.32720   Biso      1.000     C          -0.106135           
         Er1       1.0000    0.35133   0.64867   0.87500   Biso      1.000     Er          2.2276569999999998  
         Er2       1.0000    0.64867   0.64867   0.12500   Biso      1.000     Er          2.227656  
         Er3       1.0000    0.64867   0.35133   0.37500   Biso      1.000     Er          2.227656  
         Er4       1.0000    0.35133   0.35133   0.62500   Biso      1.000     Er          2.2276569999999998  
         H1        1.0000    0.42490   0.05920   0.87160   Biso      1.000     H          0.133022  
         H2        1.0000    0.57510   0.94080   0.37160   Biso      1.000     H          0.133022  
         H3        1.0000    0.05920   0.57510   0.12160   Biso      1.000     H          0.133022  
         H4        1.0000    0.57510   0.05920   0.12840   Biso      1.000     H          0.133022  
         H5        1.0000    0.94080   0.42490   0.62160   Biso      1.000     H          0.133023  
         H6        1.0000    0.05920   0.42490   0.37840   Biso      1.000     H          0.133023  
         H7        1.0000    0.94080   0.57510   0.87840   Biso      1.000     H          0.133022  
         H8        1.0000    0.50000   0.39920   0.00000   Biso      1.000     H          0.11625899999999999           
         H9        1.0000    0.50000   0.60080   0.50000   Biso      1.000     H          0.11625899999999999           
         H10       1.0000    0.60080   0.50000   0.75000   Biso      1.000     H          0.11625899999999999           
         H11       1.0000    0.42490   0.94080   0.62840   Biso      1.000     H          0.133022  
         H12       1.0000    0.39920   0.50000   0.25000   Biso      1.000     H          0.11625899999999999           
         O1        1.0000    0.40410   0.74170   0.73670   Biso      1.000     O          -0.7107479999999999           
         O2        1.0000    0.59590   0.25830   0.23670   Biso      1.000     O          -0.7107479999999999           
         O3        1.0000    0.42770   0.16390   0.55800   Biso      1.000     O          -0.7137939999999999           
         O4        1.0000    0.38860   0.56690   0.65010   Biso      1.000     O          -0.719275           
         O5        1.0000    0.56690   0.61140   0.90010   Biso      1.000     O          -0.719276           
         O6        1.0000    0.43310   0.38860   0.40010   Biso      1.000     O          -0.719275           
         O7        1.0000    0.25830   0.40410   0.48670   Biso      1.000     O          -0.7107479999999999           
         O8        1.0000    0.16390   0.57230   0.80800   Biso      1.000     O          -0.713793           
         O9        1.0000    0.61140   0.43310   0.15010   Biso      1.000     O          -0.719275           
         O10       1.0000    0.83610   0.42770   0.30800   Biso      1.000     O          -0.713793           
         O11       1.0000    0.57230   0.83610   0.05800   Biso      1.000     O          -0.7137939999999999           
         O12       1.0000    0.61140   0.56690   0.34990   Biso      1.000     O          -0.719275           
         O13       1.0000    0.43310   0.61140   0.09990   Biso      1.000     O          -0.719275           
         O14       1.0000    0.83610   0.57230   0.19200   Biso      1.000     O          -0.713793           
         O15       1.0000    0.74170   0.40410   0.51330   Biso      1.000     O          -0.710747           
         O16       1.0000    0.56690   0.38860   0.59990   Biso      1.000     O          -0.719276           
         O17       1.0000    0.16390   0.42770   0.69200   Biso      1.000     O          -0.713793           
         O18       1.0000    0.59590   0.74170   0.26330   Biso      1.000     O          -0.7107479999999999           
         O19       1.0000    0.57230   0.16390   0.44200   Biso      1.000     O          -0.713793           
         O20       1.0000    0.40410   0.25830   0.76330   Biso      1.000     O          -0.7107479999999999           
         O21       1.0000    0.38860   0.43310   0.84990   Biso      1.000     O          -0.719275           
         O22       1.0000    0.42770   0.83610   0.94200   Biso      1.000     O          -0.713793           
         O23       1.0000    0.25830   0.59590   0.01330   Biso      1.000     O          -0.7107479999999999           
         O24       1.0000    0.74170   0.59590   0.98670   Biso      1.000     O          -0.7107479999999999 