
##########################################################################
#               Crystallographic Information Format file
#               Produced by PyCifRW module
#
#  This is a CIF file.  CIF has been adopted by the International
#  Union of Crystallography as the standard for data archiving and
#  transmission.
#
#  For information on this file format, follow the CIF links at
#  http://www.iucr.org
##########################################################################

data_image0

_cell_length_a                          18.3127
_cell_length_b                          18.3127
_cell_length_c                          18.3127
_cell_angle_alpha                       60
_cell_angle_beta                        60
_cell_angle_gamma                       60
_symmetry_space_group_name_H-M          'P 1'
_symmetry_int_tables_number             1
loop_
  _symmetry_equiv_pos_as_xyz
         'x, y, z' 
loop_
  _atom_site_label
  _atom_site_occupancy
  _atom_site_fract_x
  _atom_site_fract_y
  _atom_site_fract_z
  _atom_site_thermal_displace_type
  _atom_site_B_iso_or_equiv
  _atom_site_type_symbol
  _atom_site_charge
         C1        1.0000    0.59306   0.97312   0.46070   Biso      1.000     C          -0.101242           
         C2        1.0000    0.44619   0.05381   0.44619   Biso      1.000     C          -0.025759           
         C3        1.0000    0.38858   0.11142   0.38858   Biso      1.000     C          0.607105  
         C4        1.0000    0.05381   0.44619   0.05381   Biso      1.000     C          -0.025756           
         C5        1.0000    0.11142   0.38858   0.11142   Biso      1.000     C          0.607105  
         C6        1.0000    0.97312   0.59306   0.97312   Biso      1.000     C          -0.101242           
         C7        1.0000    0.46070   0.97312   0.59306   Biso      1.000     C          -0.10124  
         C8        1.0000    0.97312   0.46070   0.97312   Biso      1.000     C          -0.101237           
         C9        1.0000    0.11142   0.11142   0.38858   Biso      1.000     C          0.607156  
         C10       1.0000    0.46070   0.59306   0.97312   Biso      1.000     C          -0.101242           
         C11       1.0000    0.59306   0.46070   0.97312   Biso      1.000     C          -0.101243           
         C12       1.0000    0.97312   0.97312   0.59306   Biso      1.000     C          -0.101243           
         C13       1.0000    0.97312   0.59306   0.46070   Biso      1.000     C          -0.101241           
         C14       1.0000    0.59306   0.97312   0.97312   Biso      1.000     C          -0.101235           
         C15       1.0000    0.97312   0.46070   0.59306   Biso      1.000     C          -0.101241           
         C16       1.0000    0.46070   0.97312   0.97312   Biso      1.000     C          -0.10124  
         C17       1.0000    0.02688   0.53930   0.40694   Biso      1.000     C          -0.101237           
         C18       1.0000    0.97312   0.97312   0.46070   Biso      1.000     C          -0.101242           
         C19       1.0000    0.53930   0.02688   0.02688   Biso      1.000     C          -0.101237           
         C20       1.0000    0.05381   0.05381   0.44619   Biso      1.000     C          -0.025756           
         C21       1.0000    0.44619   0.44619   0.05381   Biso      1.000     C          -0.025756           
         C22       1.0000    0.94619   0.55381   0.94619   Biso      1.000     C          -0.025756           
         C23       1.0000    0.88858   0.61142   0.88858   Biso      1.000     C          0.607105  
         C24       1.0000    0.55381   0.94619   0.55381   Biso      1.000     C          -0.025752           
         C25       1.0000    0.61142   0.88858   0.61142   Biso      1.000     C          0.607156  
         C26       1.0000    0.55381   0.55381   0.94619   Biso      1.000     C          -0.025755           
         C27       1.0000    0.61142   0.61142   0.88858   Biso      1.000     C          0.607156  
         C28       1.0000    0.94619   0.94619   0.55381   Biso      1.000     C          -0.025755           
         C29       1.0000    0.38858   0.38858   0.11142   Biso      1.000     C          0.607156  
         C30       1.0000    0.88858   0.88858   0.61142   Biso      1.000     C          0.607156  
         C31       1.0000    0.88858   0.61142   0.61142   Biso      1.000     C          0.607054  
         C32       1.0000    0.55381   0.94619   0.94619   Biso      1.000     C          -0.025752           
         C33       1.0000    0.61142   0.88858   0.88858   Biso      1.000     C          0.607105  
         C34       1.0000    0.44619   0.05381   0.05381   Biso      1.000     C          -0.02576  
         C35       1.0000    0.38858   0.11142   0.11142   Biso      1.000     C          0.607054  
         C36       1.0000    0.05381   0.44619   0.44619   Biso      1.000     C          -0.025749           
         C37       1.0000    0.11142   0.38858   0.38858   Biso      1.000     C          0.607156  
         C38       1.0000    0.94619   0.55381   0.55381   Biso      1.000     C          -0.025762           
         C39       1.0000    0.02688   0.40694   0.53930   Biso      1.000     C          -0.101237           
         C40       1.0000    0.40694   0.02688   0.02688   Biso      1.000     C          -0.101236           
         C41       1.0000    0.02688   0.02688   0.53930   Biso      1.000     C          -0.10124  
         C42       1.0000    0.53930   0.40694   0.02688   Biso      1.000     C          -0.101241           
         C43       1.0000    0.02688   0.02688   0.40694   Biso      1.000     C          -0.101241           
         C44       1.0000    0.40694   0.02688   0.53930   Biso      1.000     C          -0.101242           
         C45       1.0000    0.02688   0.40694   0.02688   Biso      1.000     C          -0.101235           
         C46       1.0000    0.53930   0.02688   0.40694   Biso      1.000     C          -0.101237           
         C47       1.0000    0.02688   0.53930   0.02688   Biso      1.000     C          -0.101239           
         C48       1.0000    0.40694   0.53930   0.02688   Biso      1.000     C          -0.10124  
         H1        1.0000    0.04520   0.56580   0.34380   Biso      1.000     H          0.123565  
         H2        1.0000    0.04520   0.34380   0.56580   Biso      1.000     H          0.123565  
         H3        1.0000    0.34380   0.56580   0.04520   Biso      1.000     H          0.123563  
         H4        1.0000    0.04520   0.04520   0.56580   Biso      1.000     H          0.123563  
         H5        1.0000    0.04520   0.34380   0.04520   Biso      1.000     H          0.123564  
         H6        1.0000    0.04520   0.04520   0.34380   Biso      1.000     H          0.123562  
         H7        1.0000    0.34380   0.04520   0.56580   Biso      1.000     H          0.123561  
         H8        1.0000    0.34380   0.04520   0.04520   Biso      1.000     H          0.123563  
         H9        1.0000    0.56580   0.04520   0.34380   Biso      1.000     H          0.123563  
         H10       1.0000    0.04520   0.56580   0.04520   Biso      1.000     H          0.123563  
         H11       1.0000    0.56580   0.34380   0.04520   Biso      1.000     H          0.123562  
         H12       1.0000    0.43420   0.95480   0.95480   Biso      1.000     H          0.123564  
         H13       1.0000    0.56580   0.04520   0.04520   Biso      1.000     H          0.123563  
         H14       1.0000    0.65620   0.95480   0.95480   Biso      1.000     H          0.123566  
         H15       1.0000    0.95480   0.43420   0.65620   Biso      1.000     H          0.123562  
         H16       1.0000    0.95480   0.65620   0.95480   Biso      1.000     H          0.123563  
         H17       1.0000    0.43420   0.95480   0.65620   Biso      1.000     H          0.123564  
         H18       1.0000    0.65620   0.95480   0.43420   Biso      1.000     H          0.123564  
         H19       1.0000    0.95480   0.43420   0.95480   Biso      1.000     H          0.123564  
         H20       1.0000    0.95480   0.95480   0.43420   Biso      1.000     H          0.123563  
         H21       1.0000    0.65620   0.43420   0.95480   Biso      1.000     H          0.123562  
         H22       1.0000    0.95480   0.95480   0.65620   Biso      1.000     H          0.123563  
         H23       1.0000    0.95480   0.65620   0.43420   Biso      1.000     H          0.123562  
         H24       1.0000    0.43420   0.65620   0.95480   Biso      1.000     H          0.123563  
         O1        1.0000    0.13369   0.30489   0.42773   Biso      1.000     O          -0.547983           
         O2        1.0000    0.86631   0.57227   0.69511   Biso      1.000     O          -0.547818           
         O3        1.0000    0.42773   0.13369   0.13369   Biso      1.000     O          -0.547817           
         O4        1.0000    0.13369   0.42773   0.30489   Biso      1.000     O          -0.547983           
         O5        1.0000    0.30489   0.13369   0.13369   Biso      1.000     O          -0.547818           
         O6        1.0000    0.57227   0.86631   0.86631   Biso      1.000     O          -0.547827           
         O7        1.0000    0.86631   0.57227   0.86631   Biso      1.000     O          -0.547972           
         O8        1.0000    0.86631   0.86631   0.69511   Biso      1.000     O          -0.547987           
         O9        1.0000    0.57227   0.69511   0.86631   Biso      1.000     O          -0.547986           
         O10       1.0000    0.86631   0.86631   0.57227   Biso      1.000     O          -0.547986           
         O11       1.0000    0.69511   0.57227   0.86631   Biso      1.000     O          -0.547986           
         O12       1.0000    0.86631   0.69511   0.57227   Biso      1.000     O          -0.547818           
         O13       1.0000    0.30489   0.42773   0.13369   Biso      1.000     O          -0.547987           
         O14       1.0000    0.69511   0.86631   0.86631   Biso      1.000     O          -0.547971           
         O15       1.0000    0.69511   0.86631   0.57227   Biso      1.000     O          -0.547984           
         O16       1.0000    0.13369   0.13369   0.42773   Biso      1.000     O          -0.547986           
         O17       1.0000    0.86631   0.69511   0.86631   Biso      1.000     O          -0.54783  
         O18       1.0000    0.13369   0.13369   0.30489   Biso      1.000     O          -0.547987           
         O19       1.0000    0.30489   0.13369   0.42773   Biso      1.000     O          -0.54783  
         O20       1.0000    0.13369   0.30489   0.13369   Biso      1.000     O          -0.547972           
         O21       1.0000    0.42773   0.13369   0.30489   Biso      1.000     O          -0.547974           
         O22       1.0000    0.13369   0.42773   0.13369   Biso      1.000     O          -0.547829           
         O23       1.0000    0.75000   0.75000   0.75000   Biso      1.000     O          -1.033372           
         O24       1.0000    0.25000   0.25000   0.25000   Biso      1.000     O          -1.033372           
         O25       1.0000    0.57227   0.86631   0.69511   Biso      1.000     O          -0.547985           
         O26       1.0000    0.42773   0.30489   0.13369   Biso      1.000     O          -0.547986           
         Zn1       1.0000    0.38001   0.20666   0.20666   Biso      1.000     Zn          0.963103  
         Zn2       1.0000    0.20667   0.20666   0.20666   Biso      1.000     Zn          0.963104  
         Zn3       1.0000    0.20667   0.20666   0.38001   Biso      1.000     Zn          0.963117  
         Zn4       1.0000    0.79334   0.79333   0.61999   Biso      1.000     Zn          0.96311   
         Zn5       1.0000    0.79334   0.61999   0.79333   Biso      1.000     Zn          0.963103  
         Zn6       1.0000    0.79334   0.79333   0.79334   Biso      1.000     Zn          0.963111  
         Zn7       1.0000    0.61999   0.79334   0.79334   Biso      1.000     Zn          0.963117  
         Zn8       1.0000    0.20666   0.38001   0.20666   Biso      1.000     Zn          0.963117 