
##########################################################################
#               Crystallographic Information Format file
#               Produced by PyCifRW module
#
#  This is a CIF file.  CIF has been adopted by the International
#  Union of Crystallography as the standard for data archiving and
#  transmission.
#
#  For information on this file format, follow the CIF links at
#  http://www.iucr.org
##########################################################################

data_image0

_cell_length_a                          18.3063
_cell_length_b                          18.3063
_cell_length_c                          18.3063
_cell_angle_alpha                       60
_cell_angle_beta                        60
_cell_angle_gamma                       60
_symmetry_space_group_name_H-M          'P 1'
_symmetry_int_tables_number             1
loop_
  _symmetry_equiv_pos_as_xyz
         'x, y, z' 
loop_
  _atom_site_label
  _atom_site_occupancy
  _atom_site_fract_x
  _atom_site_fract_y
  _atom_site_fract_z
  _atom_site_thermal_displace_type
  _atom_site_B_iso_or_equiv
  _atom_site_type_symbol
  _atom_site_charge
         C1        1.0000    0.59271   0.97317   0.46095   Biso      1.000     C          -0.100744           
         C2        1.0000    0.44619   0.05381   0.44619   Biso      1.000     C          -0.025003           
         C3        1.0000    0.38856   0.11144   0.38856   Biso      1.000     C          0.609125  
         C4        1.0000    0.05381   0.44619   0.05381   Biso      1.000     C          -0.025006           
         C5        1.0000    0.11144   0.38856   0.11144   Biso      1.000     C          0.609164  
         C6        1.0000    0.97317   0.59271   0.97317   Biso      1.000     C          -0.100736           
         C7        1.0000    0.46095   0.97317   0.59271   Biso      1.000     C          -0.100742           
         C8        1.0000    0.97317   0.46095   0.97317   Biso      1.000     C          -0.100736           
         C9        1.0000    0.11144   0.11144   0.38856   Biso      1.000     C          0.609164  
         C10       1.0000    0.46095   0.59271   0.97317   Biso      1.000     C          -0.100742           
         C11       1.0000    0.59271   0.46095   0.97317   Biso      1.000     C          -0.100744           
         C12       1.0000    0.97317   0.97317   0.59271   Biso      1.000     C          -0.100736           
         C13       1.0000    0.97317   0.59271   0.46095   Biso      1.000     C          -0.100736           
         C14       1.0000    0.59271   0.97317   0.97317   Biso      1.000     C          -0.100744           
         C15       1.0000    0.97317   0.46095   0.59271   Biso      1.000     C          -0.100736           
         C16       1.0000    0.46095   0.97317   0.97317   Biso      1.000     C          -0.100742           
         C17       1.0000    0.02683   0.53905   0.40729   Biso      1.000     C          -0.10073  
         C18       1.0000    0.97317   0.97317   0.46095   Biso      1.000     C          -0.100736           
         C19       1.0000    0.53905   0.02683   0.02683   Biso      1.000     C          -0.100735           
         C20       1.0000    0.05381   0.05381   0.44619   Biso      1.000     C          -0.025006           
         C21       1.0000    0.44619   0.44619   0.05381   Biso      1.000     C          -0.025003           
         C22       1.0000    0.94619   0.55381   0.94619   Biso      1.000     C          -0.025003           
         C23       1.0000    0.88856   0.61144   0.88856   Biso      1.000     C          0.609164  
         C24       1.0000    0.55381   0.94619   0.55381   Biso      1.000     C          -0.025    
         C25       1.0000    0.61144   0.88856   0.61144   Biso      1.000     C          0.609125  
         C26       1.0000    0.55381   0.55381   0.94619   Biso      1.000     C          -0.025    
         C27       1.0000    0.61144   0.61144   0.88856   Biso      1.000     C          0.609125  
         C28       1.0000    0.94619   0.94619   0.55381   Biso      1.000     C          -0.025003           
         C29       1.0000    0.38856   0.38856   0.11144   Biso      1.000     C          0.609125  
         C30       1.0000    0.88856   0.88856   0.61144   Biso      1.000     C          0.609164  
         C31       1.0000    0.88856   0.61144   0.61144   Biso      1.000     C          0.609164  
         C32       1.0000    0.55381   0.94619   0.94619   Biso      1.000     C          -0.025    
         C33       1.0000    0.61144   0.88856   0.88856   Biso      1.000     C          0.609125  
         C34       1.0000    0.44619   0.05381   0.05381   Biso      1.000     C          -0.025003           
         C35       1.0000    0.38856   0.11144   0.11144   Biso      1.000     C          0.609125  
         C36       1.0000    0.05381   0.44619   0.44619   Biso      1.000     C          -0.025005           
         C37       1.0000    0.11144   0.38856   0.38856   Biso      1.000     C          0.609164  
         C38       1.0000    0.94619   0.55381   0.55381   Biso      1.000     C          -0.025003           
         C39       1.0000    0.02683   0.40729   0.53905   Biso      1.000     C          -0.100729           
         C40       1.0000    0.40729   0.02683   0.02683   Biso      1.000     C          -0.100736           
         C41       1.0000    0.02683   0.02683   0.53905   Biso      1.000     C          -0.100728           
         C42       1.0000    0.53905   0.40729   0.02683   Biso      1.000     C          -0.100734           
         C43       1.0000    0.02683   0.02683   0.40729   Biso      1.000     C          -0.100729           
         C44       1.0000    0.40729   0.02683   0.53905   Biso      1.000     C          -0.100736           
         C45       1.0000    0.02683   0.40729   0.02683   Biso      1.000     C          -0.100729           
         C46       1.0000    0.53905   0.02683   0.40729   Biso      1.000     C          -0.100734           
         C47       1.0000    0.02683   0.53905   0.02683   Biso      1.000     C          -0.100728           
         C48       1.0000    0.40729   0.53905   0.02683   Biso      1.000     C          -0.100736           
         H1        1.0000    0.04520   0.56560   0.34400   Biso      1.000     H          0.122262  
         H2        1.0000    0.04520   0.34400   0.56560   Biso      1.000     H          0.122261  
         H3        1.0000    0.34400   0.56560   0.04520   Biso      1.000     H          0.12225599999999999           
         H4        1.0000    0.04520   0.04520   0.56560   Biso      1.000     H          0.122261  
         H5        1.0000    0.04520   0.34400   0.04520   Biso      1.000     H          0.122261  
         H6        1.0000    0.04520   0.04520   0.34400   Biso      1.000     H          0.122261  
         H7        1.0000    0.34400   0.04520   0.56560   Biso      1.000     H          0.12225599999999999           
         H8        1.0000    0.34400   0.04520   0.04520   Biso      1.000     H          0.12225599999999999           
         H9        1.0000    0.56560   0.04520   0.34400   Biso      1.000     H          0.12225899999999999           
         H10       1.0000    0.04520   0.56560   0.04520   Biso      1.000     H          0.122261  
         H11       1.0000    0.56560   0.34400   0.04520   Biso      1.000     H          0.12225899999999999           
         H12       1.0000    0.43440   0.95480   0.95480   Biso      1.000     H          0.12225899999999999           
         H13       1.0000    0.56560   0.04520   0.04520   Biso      1.000     H          0.12225899999999999           
         H14       1.0000    0.65600   0.95480   0.95480   Biso      1.000     H          0.12225699999999999           
         H15       1.0000    0.95480   0.43440   0.65600   Biso      1.000     H          0.122262  
         H16       1.0000    0.95480   0.65600   0.95480   Biso      1.000     H          0.122262  
         H17       1.0000    0.43440   0.95480   0.65600   Biso      1.000     H          0.12225899999999999           
         H18       1.0000    0.65600   0.95480   0.43440   Biso      1.000     H          0.12225699999999999           
         H19       1.0000    0.95480   0.43440   0.95480   Biso      1.000     H          0.122262  
         H20       1.0000    0.95480   0.95480   0.43440   Biso      1.000     H          0.122262  
         H21       1.0000    0.65600   0.43440   0.95480   Biso      1.000     H          0.12225699999999999           
         H22       1.0000    0.95480   0.95480   0.65600   Biso      1.000     H          0.122262  
         H23       1.0000    0.95480   0.65600   0.43440   Biso      1.000     H          0.122262  
         H24       1.0000    0.43440   0.65600   0.95480   Biso      1.000     H          0.12225899999999999           
         O1        1.0000    0.13368   0.30496   0.42768   Biso      1.000     O          -0.5486800000000001           
         O2        1.0000    0.86632   0.57232   0.69504   Biso      1.000     O          -0.5486800000000001           
         O3        1.0000    0.42768   0.13368   0.13368   Biso      1.000     O          -0.5486340000000001           
         O4        1.0000    0.13368   0.42768   0.30496   Biso      1.000     O          -0.5486800000000001           
         O5        1.0000    0.30496   0.13368   0.13368   Biso      1.000     O          -0.548652           
         O6        1.0000    0.57232   0.86632   0.86632   Biso      1.000     O          -0.5486340000000001           
         O7        1.0000    0.86632   0.57232   0.86632   Biso      1.000     O          -0.548679           
         O8        1.0000    0.86632   0.86632   0.69504   Biso      1.000     O          -0.5486800000000001           
         O9        1.0000    0.57232   0.69504   0.86632   Biso      1.000     O          -0.5486340000000001           
         O10       1.0000    0.86632   0.86632   0.57232   Biso      1.000     O          -0.548679           
         O11       1.0000    0.69504   0.57232   0.86632   Biso      1.000     O          -0.548652           
         O12       1.0000    0.86632   0.69504   0.57232   Biso      1.000     O          -0.5486800000000001           
         O13       1.0000    0.30496   0.42768   0.13368   Biso      1.000     O          -0.548652           
         O14       1.0000    0.69504   0.86632   0.86632   Biso      1.000     O          -0.548652           
         O15       1.0000    0.69504   0.86632   0.57232   Biso      1.000     O          -0.548652           
         O16       1.0000    0.13368   0.13368   0.42768   Biso      1.000     O          -0.548679           
         O17       1.0000    0.86632   0.69504   0.86632   Biso      1.000     O          -0.5486800000000001           
         O18       1.0000    0.13368   0.13368   0.30496   Biso      1.000     O          -0.5486800000000001           
         O19       1.0000    0.30496   0.13368   0.42768   Biso      1.000     O          -0.548652           
         O20       1.0000    0.13368   0.30496   0.13368   Biso      1.000     O          -0.5486800000000001           
         O21       1.0000    0.42768   0.13368   0.30496   Biso      1.000     O          -0.5486340000000001           
         O22       1.0000    0.13368   0.42768   0.13368   Biso      1.000     O          -0.548679           
         O23       1.0000    0.75000   0.75000   0.75000   Biso      1.000     O          -1.034564           
         O24       1.0000    0.25000   0.25000   0.25000   Biso      1.000     O          -1.034564           
         O25       1.0000    0.57232   0.86632   0.69504   Biso      1.000     O          -0.5486340000000001           
         O26       1.0000    0.42768   0.30496   0.13368   Biso      1.000     O          -0.5486340000000001           
         Zn1       1.0000    0.38005   0.20665   0.20665   Biso      1.000     Zn          0.9637950000000001  
         Zn2       1.0000    0.20664   0.20665   0.20665   Biso      1.000     Zn          0.963857  
         Zn3       1.0000    0.20664   0.20665   0.38006   Biso      1.000     Zn          0.9638559999999999  
         Zn4       1.0000    0.79336   0.79335   0.61994   Biso      1.000     Zn          0.9638559999999999  
         Zn5       1.0000    0.79336   0.61994   0.79335   Biso      1.000     Zn          0.9638559999999999  
         Zn6       1.0000    0.79336   0.79335   0.79335   Biso      1.000     Zn          0.963857  
         Zn7       1.0000    0.61995   0.79335   0.79335   Biso      1.000     Zn          0.9637950000000001  
         Zn8       1.0000    0.20664   0.38006   0.20665   Biso      1.000     Zn          0.9638559999999999 