
##########################################################################
#               Crystallographic Information Format file
#               Produced by PyCifRW module
#
#  This is a CIF file.  CIF has been adopted by the International
#  Union of Crystallography as the standard for data archiving and
#  transmission.
#
#  For information on this file format, follow the CIF links at
#  http://www.iucr.org
##########################################################################

data_image0

_cell_length_a                          18.283
_cell_length_b                          18.283
_cell_length_c                          18.283
_cell_angle_alpha                       60
_cell_angle_beta                        60
_cell_angle_gamma                       60
_symmetry_space_group_name_H-M          'P 1'
_symmetry_int_tables_number             1
loop_
  _symmetry_equiv_pos_as_xyz
         'x, y, z' 
loop_
  _atom_site_label
  _atom_site_occupancy
  _atom_site_fract_x
  _atom_site_fract_y
  _atom_site_fract_z
  _atom_site_thermal_displace_type
  _atom_site_B_iso_or_equiv
  _atom_site_type_symbol
  _atom_site_charge
         C1        1.0000    0.59204   0.97330   0.46136   Biso      1.000     C          -0.101971           
         C2        1.0000    0.44628   0.05372   0.44628   Biso      1.000     C          -0.022964           
         C3        1.0000    0.38852   0.11148   0.38852   Biso      1.000     C          0.611792  
         C4        1.0000    0.05372   0.44628   0.05372   Biso      1.000     C          -0.022962           
         C5        1.0000    0.11148   0.38852   0.11148   Biso      1.000     C          0.61182   
         C6        1.0000    0.97330   0.59204   0.97330   Biso      1.000     C          -0.101975           
         C7        1.0000    0.46136   0.97330   0.59204   Biso      1.000     C          -0.101966           
         C8        1.0000    0.97330   0.46136   0.97330   Biso      1.000     C          -0.101975           
         C9        1.0000    0.11148   0.11148   0.38852   Biso      1.000     C          0.61182   
         C10       1.0000    0.46136   0.59204   0.97330   Biso      1.000     C          -0.101966           
         C11       1.0000    0.59204   0.46136   0.97330   Biso      1.000     C          -0.101971           
         C12       1.0000    0.97330   0.97330   0.59204   Biso      1.000     C          -0.101975           
         C13       1.0000    0.97330   0.59204   0.46136   Biso      1.000     C          -0.101974           
         C14       1.0000    0.59204   0.97330   0.97330   Biso      1.000     C          -0.10197  
         C15       1.0000    0.97330   0.46136   0.59204   Biso      1.000     C          -0.101975           
         C16       1.0000    0.46136   0.97330   0.97330   Biso      1.000     C          -0.101966           
         C17       1.0000    0.02670   0.53864   0.40796   Biso      1.000     C          -0.101964           
         C18       1.0000    0.97330   0.97330   0.46136   Biso      1.000     C          -0.101975           
         C19       1.0000    0.53864   0.02670   0.02670   Biso      1.000     C          -0.101955           
         C20       1.0000    0.05372   0.05372   0.44628   Biso      1.000     C          -0.022962           
         C21       1.0000    0.44628   0.44628   0.05372   Biso      1.000     C          -0.022964           
         C22       1.0000    0.94628   0.55372   0.94628   Biso      1.000     C          -0.022952           
         C23       1.0000    0.88852   0.61148   0.88852   Biso      1.000     C          0.611819  
         C24       1.0000    0.55372   0.94628   0.55372   Biso      1.000     C          -0.022954           
         C25       1.0000    0.61148   0.88852   0.61148   Biso      1.000     C          0.611791  
         C26       1.0000    0.55372   0.55372   0.94628   Biso      1.000     C          -0.022954           
         C27       1.0000    0.61148   0.61148   0.88852   Biso      1.000     C          0.611791  
         C28       1.0000    0.94628   0.94628   0.55372   Biso      1.000     C          -0.022952           
         C29       1.0000    0.38852   0.38852   0.11148   Biso      1.000     C          0.611792  
         C30       1.0000    0.88852   0.88852   0.61148   Biso      1.000     C          0.611819  
         C31       1.0000    0.88852   0.61148   0.61148   Biso      1.000     C          0.611819  
         C32       1.0000    0.55372   0.94628   0.94628   Biso      1.000     C          -0.022954           
         C33       1.0000    0.61148   0.88852   0.88852   Biso      1.000     C          0.611791  
         C34       1.0000    0.44628   0.05372   0.05372   Biso      1.000     C          -0.022961           
         C35       1.0000    0.38852   0.11148   0.11148   Biso      1.000     C          0.611792  
         C36       1.0000    0.05372   0.44628   0.44628   Biso      1.000     C          -0.022958           
         C37       1.0000    0.11148   0.38852   0.38852   Biso      1.000     C          0.611819  
         C38       1.0000    0.94628   0.55372   0.55372   Biso      1.000     C          -0.022951           
         C39       1.0000    0.02670   0.40796   0.53864   Biso      1.000     C          -0.10196  
         C40       1.0000    0.40796   0.02670   0.02670   Biso      1.000     C          -0.101956           
         C41       1.0000    0.02670   0.02670   0.53864   Biso      1.000     C          -0.101959           
         C42       1.0000    0.53864   0.40796   0.02670   Biso      1.000     C          -0.101951           
         C43       1.0000    0.02670   0.02670   0.40796   Biso      1.000     C          -0.101959           
         C44       1.0000    0.40796   0.02670   0.53864   Biso      1.000     C          -0.101955           
         C45       1.0000    0.02670   0.40796   0.02670   Biso      1.000     C          -0.101959           
         C46       1.0000    0.53864   0.02670   0.40796   Biso      1.000     C          -0.101951           
         C47       1.0000    0.02670   0.53864   0.02670   Biso      1.000     C          -0.101959           
         C48       1.0000    0.40796   0.53864   0.02670   Biso      1.000     C          -0.101955           
         H1        1.0000    0.04500   0.56540   0.34460   Biso      1.000     H          0.121486  
         H2        1.0000    0.04500   0.34460   0.56540   Biso      1.000     H          0.121486  
         H3        1.0000    0.34460   0.56540   0.04500   Biso      1.000     H          0.121487  
         H4        1.0000    0.04500   0.04500   0.56540   Biso      1.000     H          0.121485  
         H5        1.0000    0.04500   0.34460   0.04500   Biso      1.000     H          0.121486  
         H6        1.0000    0.04500   0.04500   0.34460   Biso      1.000     H          0.121486  
         H7        1.0000    0.34460   0.04500   0.56540   Biso      1.000     H          0.121487  
         H8        1.0000    0.34460   0.04500   0.04500   Biso      1.000     H          0.121487  
         H9        1.0000    0.56540   0.04500   0.34460   Biso      1.000     H          0.121488  
         H10       1.0000    0.04500   0.56540   0.04500   Biso      1.000     H          0.121485  
         H11       1.0000    0.56540   0.34460   0.04500   Biso      1.000     H          0.121488  
         H12       1.0000    0.43460   0.95500   0.95500   Biso      1.000     H          0.121489  
         H13       1.0000    0.56540   0.04500   0.04500   Biso      1.000     H          0.121488  
         H14       1.0000    0.65540   0.95500   0.95500   Biso      1.000     H          0.121488  
         H15       1.0000    0.95500   0.43460   0.65540   Biso      1.000     H          0.121487  
         H16       1.0000    0.95500   0.65540   0.95500   Biso      1.000     H          0.121487  
         H17       1.0000    0.43460   0.95500   0.65540   Biso      1.000     H          0.121489  
         H18       1.0000    0.65540   0.95500   0.43460   Biso      1.000     H          0.121488  
         H19       1.0000    0.95500   0.43460   0.95500   Biso      1.000     H          0.121486  
         H20       1.0000    0.95500   0.95500   0.43460   Biso      1.000     H          0.121486  
         H21       1.0000    0.65540   0.43460   0.95500   Biso      1.000     H          0.121488  
         H22       1.0000    0.95500   0.95500   0.65540   Biso      1.000     H          0.121487  
         H23       1.0000    0.95500   0.65540   0.43460   Biso      1.000     H          0.121487  
         H24       1.0000    0.43460   0.65540   0.95500   Biso      1.000     H          0.121489  
         O1        1.0000    0.13373   0.30503   0.42751   Biso      1.000     O          -0.549355           
         O2        1.0000    0.86627   0.57249   0.69497   Biso      1.000     O          -0.549355           
         O3        1.0000    0.42751   0.13373   0.13373   Biso      1.000     O          -0.549358           
         O4        1.0000    0.13373   0.42751   0.30503   Biso      1.000     O          -0.549355           
         O5        1.0000    0.30503   0.13373   0.13373   Biso      1.000     O          -0.549253           
         O6        1.0000    0.57249   0.86627   0.86627   Biso      1.000     O          -0.549358           
         O7        1.0000    0.86627   0.57249   0.86627   Biso      1.000     O          -0.549355           
         O8        1.0000    0.86627   0.86627   0.69497   Biso      1.000     O          -0.549355           
         O9        1.0000    0.57249   0.69497   0.86627   Biso      1.000     O          -0.549358           
         O10       1.0000    0.86627   0.86627   0.57249   Biso      1.000     O          -0.549354           
         O11       1.0000    0.69497   0.57249   0.86627   Biso      1.000     O          -0.549253           
         O12       1.0000    0.86627   0.69497   0.57249   Biso      1.000     O          -0.549355           
         O13       1.0000    0.30503   0.42751   0.13373   Biso      1.000     O          -0.549254           
         O14       1.0000    0.69497   0.86627   0.86627   Biso      1.000     O          -0.549253           
         O15       1.0000    0.69497   0.86627   0.57249   Biso      1.000     O          -0.549253           
         O16       1.0000    0.13373   0.13373   0.42751   Biso      1.000     O          -0.549355           
         O17       1.0000    0.86627   0.69497   0.86627   Biso      1.000     O          -0.549354           
         O18       1.0000    0.13373   0.13373   0.30503   Biso      1.000     O          -0.549355           
         O19       1.0000    0.30503   0.13373   0.42751   Biso      1.000     O          -0.549254           
         O20       1.0000    0.13373   0.30503   0.13373   Biso      1.000     O          -0.549355           
         O21       1.0000    0.42751   0.13373   0.30503   Biso      1.000     O          -0.549359           
         O22       1.0000    0.13373   0.42751   0.13373   Biso      1.000     O          -0.549355           
         O23       1.0000    0.75000   0.75000   0.75000   Biso      1.000     O          -1.038269           
         O24       1.0000    0.25000   0.25000   0.25000   Biso      1.000     O          -1.038271           
         O25       1.0000    0.57249   0.86627   0.69497   Biso      1.000     O          -0.549359           
         O26       1.0000    0.42751   0.30503   0.13373   Biso      1.000     O          -0.549359           
         Zn1       1.0000    0.38032   0.20656   0.20656   Biso      1.000     Zn          0.965796  
         Zn2       1.0000    0.20657   0.20656   0.20656   Biso      1.000     Zn          0.965692  
         Zn3       1.0000    0.20657   0.20656   0.38031   Biso      1.000     Zn          0.965692  
         Zn4       1.0000    0.79343   0.79344   0.61969   Biso      1.000     Zn          0.965692  
         Zn5       1.0000    0.79343   0.61969   0.79344   Biso      1.000     Zn          0.965691  
         Zn6       1.0000    0.79343   0.79344   0.79344   Biso      1.000     Zn          0.965691  
         Zn7       1.0000    0.61968   0.79344   0.79344   Biso      1.000     Zn          0.965795  
         Zn8       1.0000    0.20657   0.38031   0.20656   Biso      1.000     Zn          0.965692 