
##########################################################################
#               Crystallographic Information Format file
#               Produced by PyCifRW module
#
#  This is a CIF file.  CIF has been adopted by the International
#  Union of Crystallography as the standard for data archiving and
#  transmission.
#
#  For information on this file format, follow the CIF links at
#  http://www.iucr.org
##########################################################################

data_image0

_cell_length_a                          18.2943
_cell_length_b                          18.2943
_cell_length_c                          18.2943
_cell_angle_alpha                       60
_cell_angle_beta                        60
_cell_angle_gamma                       60
_symmetry_space_group_name_H-M          'P 1'
_symmetry_int_tables_number             1
loop_
  _symmetry_equiv_pos_as_xyz
         'x, y, z' 
loop_
  _atom_site_label
  _atom_site_occupancy
  _atom_site_fract_x
  _atom_site_fract_y
  _atom_site_fract_z
  _atom_site_thermal_displace_type
  _atom_site_B_iso_or_equiv
  _atom_site_type_symbol
  _atom_site_charge
         C1        1.0000    0.59239   0.97325   0.46111   Biso      1.000     C          -0.10131  
         C2        1.0000    0.44626   0.05374   0.44626   Biso      1.000     C          -0.023490999999999998         
         C3        1.0000    0.38853   0.11147   0.38853   Biso      1.000     C          0.6089640000000001  
         C4        1.0000    0.05374   0.44626   0.05374   Biso      1.000     C          -0.023490999999999998         
         C5        1.0000    0.11147   0.38853   0.11147   Biso      1.000     C          0.6089640000000001  
         C6        1.0000    0.97325   0.59239   0.97325   Biso      1.000     C          -0.10131  
         C7        1.0000    0.46111   0.97325   0.59239   Biso      1.000     C          -0.10131  
         C8        1.0000    0.97325   0.46111   0.97325   Biso      1.000     C          -0.10131  
         C9        1.0000    0.11147   0.11147   0.38853   Biso      1.000     C          0.6089640000000001  
         C10       1.0000    0.46111   0.59239   0.97325   Biso      1.000     C          -0.10131  
         C11       1.0000    0.59239   0.46111   0.97325   Biso      1.000     C          -0.10131  
         C12       1.0000    0.97325   0.97325   0.59239   Biso      1.000     C          -0.10131  
         C13       1.0000    0.97325   0.59239   0.46111   Biso      1.000     C          -0.10131  
         C14       1.0000    0.59239   0.97325   0.97325   Biso      1.000     C          -0.10131  
         C15       1.0000    0.97325   0.46111   0.59239   Biso      1.000     C          -0.10131  
         C16       1.0000    0.46111   0.97325   0.97325   Biso      1.000     C          -0.10131  
         C17       1.0000    0.02675   0.53889   0.40761   Biso      1.000     C          -0.101302           
         C18       1.0000    0.97325   0.97325   0.46111   Biso      1.000     C          -0.10131  
         C19       1.0000    0.53889   0.02675   0.02675   Biso      1.000     C          -0.101302           
         C20       1.0000    0.05374   0.05374   0.44626   Biso      1.000     C          -0.023490999999999998         
         C21       1.0000    0.44626   0.44626   0.05374   Biso      1.000     C          -0.023490999999999998         
         C22       1.0000    0.94626   0.55374   0.94626   Biso      1.000     C          -0.023485           
         C23       1.0000    0.88853   0.61147   0.88853   Biso      1.000     C          0.6089640000000001  
         C24       1.0000    0.55374   0.94626   0.55374   Biso      1.000     C          -0.023485           
         C25       1.0000    0.61147   0.88853   0.61147   Biso      1.000     C          0.6089640000000001  
         C26       1.0000    0.55374   0.55374   0.94626   Biso      1.000     C          -0.023485           
         C27       1.0000    0.61147   0.61147   0.88853   Biso      1.000     C          0.6089640000000001  
         C28       1.0000    0.94626   0.94626   0.55374   Biso      1.000     C          -0.023485           
         C29       1.0000    0.38853   0.38853   0.11147   Biso      1.000     C          0.6089640000000001  
         C30       1.0000    0.88853   0.88853   0.61147   Biso      1.000     C          0.6089640000000001  
         C31       1.0000    0.88853   0.61147   0.61147   Biso      1.000     C          0.608963  
         C32       1.0000    0.55374   0.94626   0.94626   Biso      1.000     C          -0.023485           
         C33       1.0000    0.61147   0.88853   0.88853   Biso      1.000     C          0.6089640000000001  
         C34       1.0000    0.44626   0.05374   0.05374   Biso      1.000     C          -0.023489           
         C35       1.0000    0.38853   0.11147   0.11147   Biso      1.000     C          0.6089640000000001  
         C36       1.0000    0.05374   0.44626   0.44626   Biso      1.000     C          -0.023489           
         C37       1.0000    0.11147   0.38853   0.38853   Biso      1.000     C          0.6089640000000001  
         C38       1.0000    0.94626   0.55374   0.55374   Biso      1.000     C          -0.023485           
         C39       1.0000    0.02675   0.40761   0.53889   Biso      1.000     C          -0.1013   
         C40       1.0000    0.40761   0.02675   0.02675   Biso      1.000     C          -0.1013   
         C41       1.0000    0.02675   0.02675   0.53889   Biso      1.000     C          -0.101299           
         C42       1.0000    0.53889   0.40761   0.02675   Biso      1.000     C          -0.1013   
         C43       1.0000    0.02675   0.02675   0.40761   Biso      1.000     C          -0.1013   
         C44       1.0000    0.40761   0.02675   0.53889   Biso      1.000     C          -0.1013   
         C45       1.0000    0.02675   0.40761   0.02675   Biso      1.000     C          -0.1013   
         C46       1.0000    0.53889   0.02675   0.40761   Biso      1.000     C          -0.1013   
         C47       1.0000    0.02675   0.53889   0.02675   Biso      1.000     C          -0.101299           
         C48       1.0000    0.40761   0.53889   0.02675   Biso      1.000     C          -0.1013   
         H1        1.0000    0.04510   0.56550   0.34430   Biso      1.000     H          0.121931  
         H2        1.0000    0.04510   0.34430   0.56550   Biso      1.000     H          0.121931  
         H3        1.0000    0.34430   0.56550   0.04510   Biso      1.000     H          0.121931  
         H4        1.0000    0.04510   0.04510   0.56550   Biso      1.000     H          0.121931  
         H5        1.0000    0.04510   0.34430   0.04510   Biso      1.000     H          0.121931  
         H6        1.0000    0.04510   0.04510   0.34430   Biso      1.000     H          0.121931  
         H7        1.0000    0.34430   0.04510   0.56550   Biso      1.000     H          0.121931  
         H8        1.0000    0.34430   0.04510   0.04510   Biso      1.000     H          0.121931  
         H9        1.0000    0.56550   0.04510   0.34430   Biso      1.000     H          0.121931  
         H10       1.0000    0.04510   0.56550   0.04510   Biso      1.000     H          0.121931  
         H11       1.0000    0.56550   0.34430   0.04510   Biso      1.000     H          0.121931  
         H12       1.0000    0.43450   0.95490   0.95490   Biso      1.000     H          0.121932  
         H13       1.0000    0.56550   0.04510   0.04510   Biso      1.000     H          0.121931  
         H14       1.0000    0.65570   0.95490   0.95490   Biso      1.000     H          0.121932  
         H15       1.0000    0.95490   0.43450   0.65570   Biso      1.000     H          0.121932  
         H16       1.0000    0.95490   0.65570   0.95490   Biso      1.000     H          0.121932  
         H17       1.0000    0.43450   0.95490   0.65570   Biso      1.000     H          0.121932  
         H18       1.0000    0.65570   0.95490   0.43450   Biso      1.000     H          0.121932  
         H19       1.0000    0.95490   0.43450   0.95490   Biso      1.000     H          0.121932  
         H20       1.0000    0.95490   0.95490   0.43450   Biso      1.000     H          0.121932  
         H21       1.0000    0.65570   0.43450   0.95490   Biso      1.000     H          0.121932  
         H22       1.0000    0.95490   0.95490   0.65570   Biso      1.000     H          0.121932  
         H23       1.0000    0.95490   0.65570   0.43450   Biso      1.000     H          0.121932  
         H24       1.0000    0.43450   0.65570   0.95490   Biso      1.000     H          0.121932  
         O1        1.0000    0.13372   0.30492   0.42764   Biso      1.000     O          -0.548421           
         O2        1.0000    0.86628   0.57236   0.69508   Biso      1.000     O          -0.54842  
         O3        1.0000    0.42764   0.13372   0.13372   Biso      1.000     O          -0.548421           
         O4        1.0000    0.13372   0.42764   0.30492   Biso      1.000     O          -0.548421           
         O5        1.0000    0.30492   0.13372   0.13372   Biso      1.000     O          -0.548421           
         O6        1.0000    0.57236   0.86628   0.86628   Biso      1.000     O          -0.548421           
         O7        1.0000    0.86628   0.57236   0.86628   Biso      1.000     O          -0.54842  
         O8        1.0000    0.86628   0.86628   0.69508   Biso      1.000     O          -0.548421           
         O9        1.0000    0.57236   0.69508   0.86628   Biso      1.000     O          -0.548421           
         O10       1.0000    0.86628   0.86628   0.57236   Biso      1.000     O          -0.54842  
         O11       1.0000    0.69508   0.57236   0.86628   Biso      1.000     O          -0.548421           
         O12       1.0000    0.86628   0.69508   0.57236   Biso      1.000     O          -0.548421           
         O13       1.0000    0.30492   0.42764   0.13372   Biso      1.000     O          -0.548421           
         O14       1.0000    0.69508   0.86628   0.86628   Biso      1.000     O          -0.548421           
         O15       1.0000    0.69508   0.86628   0.57236   Biso      1.000     O          -0.548421           
         O16       1.0000    0.13372   0.13372   0.42764   Biso      1.000     O          -0.548421           
         O17       1.0000    0.86628   0.69508   0.86628   Biso      1.000     O          -0.548421           
         O18       1.0000    0.13372   0.13372   0.30492   Biso      1.000     O          -0.548421           
         O19       1.0000    0.30492   0.13372   0.42764   Biso      1.000     O          -0.548421           
         O20       1.0000    0.13372   0.30492   0.13372   Biso      1.000     O          -0.548421           
         O21       1.0000    0.42764   0.13372   0.30492   Biso      1.000     O          -0.548421           
         O22       1.0000    0.13372   0.42764   0.13372   Biso      1.000     O          -0.548421           
         O23       1.0000    0.75000   0.75000   0.75000   Biso      1.000     O          -1.035773           
         O24       1.0000    0.25000   0.25000   0.25000   Biso      1.000     O          -1.035773           
         O25       1.0000    0.57236   0.86628   0.69508   Biso      1.000     O          -0.548421           
         O26       1.0000    0.42764   0.30492   0.13372   Biso      1.000     O          -0.548421           
         Zn1       1.0000    0.38020   0.20660   0.20660   Biso      1.000     Zn          0.9641120000000001  
         Zn2       1.0000    0.20660   0.20660   0.20660   Biso      1.000     Zn          0.9641120000000001  
         Zn3       1.0000    0.20660   0.20660   0.38020   Biso      1.000     Zn          0.9641120000000001  
         Zn4       1.0000    0.79340   0.79340   0.61980   Biso      1.000     Zn          0.9641120000000001  
         Zn5       1.0000    0.79340   0.61980   0.79340   Biso      1.000     Zn          0.9641120000000001  
         Zn6       1.0000    0.79340   0.79340   0.79340   Biso      1.000     Zn          0.9641120000000001  
         Zn7       1.0000    0.61980   0.79340   0.79340   Biso      1.000     Zn          0.9641120000000001  
         Zn8       1.0000    0.20660   0.38020   0.20660   Biso      1.000     Zn          0.9641120000000001 