
##########################################################################
#               Crystallographic Information Format file
#               Produced by PyCifRW module
#
#  This is a CIF file.  CIF has been adopted by the International
#  Union of Crystallography as the standard for data archiving and
#  transmission.
#
#  For information on this file format, follow the CIF links at
#  http://www.iucr.org
##########################################################################

data_image0

_cell_length_a                          8.4856
_cell_length_b                          9.5225
_cell_length_c                          13.1281
_cell_angle_alpha                       90
_cell_angle_beta                        90
_cell_angle_gamma                       94.62
_symmetry_space_group_name_H-M          'P 1'
_symmetry_int_tables_number             1
loop_
  _symmetry_equiv_pos_as_xyz
         'x, y, z' 
loop_
  _atom_site_label
  _atom_site_occupancy
  _atom_site_fract_x
  _atom_site_fract_y
  _atom_site_fract_z
  _atom_site_thermal_displace_type
  _atom_site_B_iso_or_equiv
  _atom_site_type_symbol
  _atom_site_charge
         C1        1.0000    0.96100   0.75680   0.88940   Biso      1.000     C          0.62032   
         C2        1.0000    0.29940   0.74270   0.55240   Biso      1.000     C          0.669543  
         C3        1.0000    0.75370   0.99010   0.35230   Biso      1.000     C          0.623499  
         C4        1.0000    0.53900   0.74320   0.38940   Biso      1.000     C          0.62032   
         C5        1.0000    0.40900   0.87570   0.52600   Biso      1.000     C          -0.080401           
         C6        1.0000    0.61820   0.99680   0.42530   Biso      1.000     C          -0.054838           
         C7        1.0000    0.52500   0.87490   0.45070   Biso      1.000     C          -0.052821           
         C8        1.0000    0.79940   0.24270   0.94760   Biso      1.000     C          0.669543  
         C9        1.0000    0.25370   0.49010   0.14770   Biso      1.000     C          0.623499  
         C10       1.0000    0.03900   0.24320   0.11060   Biso      1.000     C          0.62032   
         C11       1.0000    0.90900   0.37570   0.97400   Biso      1.000     C          -0.080401           
         C12       1.0000    0.11820   0.49680   0.07470   Biso      1.000     C          -0.054838           
         C13       1.0000    0.02500   0.37490   0.04930   Biso      1.000     C          -0.052821           
         C14       1.0000    0.70060   0.25730   0.44760   Biso      1.000     C          0.669543  
         C15       1.0000    0.24630   0.00990   0.64770   Biso      1.000     C          0.623499  
         C16       1.0000    0.46100   0.25680   0.61060   Biso      1.000     C          0.62032   
         C17       1.0000    0.59100   0.12430   0.47400   Biso      1.000     C          -0.080401           
         C18       1.0000    0.38180   0.00320   0.57470   Biso      1.000     C          -0.054838           
         C19       1.0000    0.47500   0.12510   0.54930   Biso      1.000     C          -0.052821           
         C20       1.0000    0.09100   0.62430   0.02600   Biso      1.000     C          -0.080401           
         C21       1.0000    0.74630   0.50990   0.85230   Biso      1.000     C          0.623499  
         C22       1.0000    0.20060   0.75730   0.05240   Biso      1.000     C          0.669543  
         C23       1.0000    0.97500   0.62510   0.95070   Biso      1.000     C          -0.052821           
         C24       1.0000    0.88180   0.50320   0.92530   Biso      1.000     C          -0.054838           
         Gd1       1.0000    0.96081   0.00811   0.76878   Biso      1.000     Gd          2.080381  
         Gd2       1.0000    0.03919   0.99189   0.23122   Biso      1.000     Gd          2.080382  
         Gd3       1.0000    0.53919   0.49189   0.26878   Biso      1.000     Gd          2.080381  
         Gd4       1.0000    0.46081   0.50811   0.73122   Biso      1.000     Gd          2.080381  
         O1        1.0000    0.15040   0.84210   0.11400   Biso      1.000     O          -0.740264           
         O2        1.0000    0.33390   0.76770   0.01100   Biso      1.000     O          -0.543665           
         O3        1.0000    0.95170   0.87370   0.93230   Biso      1.000     O          -0.599602           
         O4        1.0000    0.71780   0.41670   0.78790   Biso      1.000     O          -0.599862           
         O5        1.0000    0.65840   0.61140   0.86110   Biso      1.000     O          -0.682639           
         O6        1.0000    0.53710   0.75160   0.29350   Biso      1.000     O          -0.63965  
         O7        1.0000    0.34960   0.65790   0.61400   Biso      1.000     O          -0.740264           
         O8        1.0000    0.16610   0.73230   0.51100   Biso      1.000     O          -0.543666           
         O9        1.0000    0.54830   0.62630   0.43230   Biso      1.000     O          -0.599602           
         O10       1.0000    0.78220   0.08330   0.28790   Biso      1.000     O          -0.599862           
         O11       1.0000    0.84160   0.88860   0.36110   Biso      1.000     O          -0.682639           
         O12       1.0000    0.84960   0.15790   0.88600   Biso      1.000     O          -0.740263           
         O13       1.0000    0.66610   0.23230   0.98900   Biso      1.000     O          -0.543665           
         O14       1.0000    0.04830   0.12630   0.06770   Biso      1.000     O          -0.599602           
         O15       1.0000    0.28220   0.58330   0.21210   Biso      1.000     O          -0.599862           
         O16       1.0000    0.34160   0.38860   0.13890   Biso      1.000     O          -0.682639           
         O17       1.0000    0.46290   0.24840   0.70650   Biso      1.000     O          -0.63965  
         O18       1.0000    0.65040   0.34210   0.38600   Biso      1.000     O          -0.740264           
         O19       1.0000    0.83390   0.26770   0.48900   Biso      1.000     O          -0.543666           
         O20       1.0000    0.45170   0.37370   0.56770   Biso      1.000     O          -0.599601           
         O21       1.0000    0.21780   0.91670   0.71210   Biso      1.000     O          -0.599862           
         O22       1.0000    0.15840   0.11140   0.63890   Biso      1.000     O          -0.682639           
         O23       1.0000    0.03710   0.25160   0.20650   Biso      1.000     O          -0.63965  
         O24       1.0000    0.96290   0.74840   0.79350   Biso      1.000     O          -0.639651 