
##########################################################################
#               Crystallographic Information Format file
#               Produced by PyCifRW module
#
#  This is a CIF file.  CIF has been adopted by the International
#  Union of Crystallography as the standard for data archiving and
#  transmission.
#
#  For information on this file format, follow the CIF links at
#  http://www.iucr.org
##########################################################################

data_image0

_cell_length_a                          8.4612
_cell_length_b                          13.1272
_cell_length_c                          9.4855
_cell_angle_alpha                       90
_cell_angle_beta                        94.652
_cell_angle_gamma                       90
_symmetry_space_group_name_H-M          'P 1'
_symmetry_int_tables_number             1
loop_
  _symmetry_equiv_pos_as_xyz
         'x, y, z' 
loop_
  _atom_site_label
  _atom_site_occupancy
  _atom_site_fract_x
  _atom_site_fract_y
  _atom_site_fract_z
  _atom_site_thermal_displace_type
  _atom_site_B_iso_or_equiv
  _atom_site_type_symbol
  _atom_site_charge
         C1        1.0000    0.61810   0.92570   0.49780   Biso      1.000     C          -0.056291999999999995         
         C2        1.0000    0.03910   0.61110   0.74340   Biso      1.000     C          0.625681  
         C3        1.0000    0.02400   0.54910   0.87370   Biso      1.000     C          -0.058239           
         C4        1.0000    0.11810   0.57430   0.99780   Biso      1.000     C          -0.056291999999999995         
         C5        1.0000    0.25340   0.64750   0.98870   Biso      1.000     C          0.620907  
         C6        1.0000    0.80080   0.44780   0.74330   Biso      1.000     C          0.676384  
         C7        1.0000    0.75340   0.85250   0.48870   Biso      1.000     C          0.620907  
         C8        1.0000    0.69920   0.94780   0.75670   Biso      1.000     C          0.676383  
         C9        1.0000    0.59220   0.97380   0.62420   Biso      1.000     C          -0.077173           
         C10       1.0000    0.53910   0.88890   0.24340   Biso      1.000     C          0.625681  
         C11       1.0000    0.09220   0.52620   0.12420   Biso      1.000     C          -0.077173           
         C12       1.0000    0.52400   0.95090   0.37370   Biso      1.000     C          -0.058239           
         C13       1.0000    0.40780   0.02620   0.37580   Biso      1.000     C          -0.077175           
         C14       1.0000    0.46090   0.11110   0.75660   Biso      1.000     C          0.625681  
         C15       1.0000    0.47600   0.04910   0.62630   Biso      1.000     C          -0.058239           
         C16       1.0000    0.38190   0.07430   0.50220   Biso      1.000     C          -0.05629  
         C17       1.0000    0.24660   0.14750   0.51130   Biso      1.000     C          0.620907  
         C18       1.0000    0.74660   0.35250   0.01130   Biso      1.000     C          0.620907  
         C19       1.0000    0.88190   0.42570   0.00220   Biso      1.000     C          -0.056291999999999995         
         C20       1.0000    0.97600   0.45090   0.12630   Biso      1.000     C          -0.05824  
         C21       1.0000    0.96090   0.38890   0.25660   Biso      1.000     C          0.625681  
         C22       1.0000    0.90780   0.47380   0.87580   Biso      1.000     C          -0.077174           
         C23       1.0000    0.30080   0.05220   0.24330   Biso      1.000     C          0.676383  
         C24       1.0000    0.19920   0.55220   0.25670   Biso      1.000     C          0.676384  
         Gd1       1.0000    0.03892   0.73134   0.49194   Biso      1.000     Gd          2.0791209999999998  
         Gd2       1.0000    0.96108   0.26866   0.50806   Biso      1.000     Gd          2.0791209999999998  
         Gd3       1.0000    0.53892   0.76866   0.99194   Biso      1.000     Gd          2.07912   
         Gd4       1.0000    0.46108   0.23134   0.00806   Biso      1.000     Gd          2.07912   
         O1        1.0000    0.65870   0.36180   0.11090   Biso      1.000     O          -0.6689930000000001           
         O2        1.0000    0.54950   0.93230   0.12680   Biso      1.000     O          -0.602665           
         O3        1.0000    0.85030   0.38610   0.65790   Biso      1.000     O          -0.7452949999999999           
         O4        1.0000    0.66800   0.48920   0.73200   Biso      1.000     O          -0.54514  
         O5        1.0000    0.96320   0.29430   0.24890   Biso      1.000     O          -0.6363270000000001           
         O6        1.0000    0.71720   0.28750   0.91620   Biso      1.000     O          -0.611969           
         O7        1.0000    0.04950   0.56770   0.62680   Biso      1.000     O          -0.602665           
         O8        1.0000    0.83200   0.98920   0.76800   Biso      1.000     O          -0.545139           
         O9        1.0000    0.15870   0.13820   0.61090   Biso      1.000     O          -0.6689930000000001           
         O10       1.0000    0.21720   0.21250   0.41620   Biso      1.000     O          -0.611969           
         O11       1.0000    0.35030   0.11390   0.15790   Biso      1.000     O          -0.745293           
         O12       1.0000    0.16800   0.01080   0.23200   Biso      1.000     O          -0.545139           
         O13       1.0000    0.46320   0.20570   0.74890   Biso      1.000     O          -0.6363270000000001           
         O14       1.0000    0.45050   0.06770   0.87320   Biso      1.000     O          -0.602665           
         O15       1.0000    0.53680   0.79430   0.25110   Biso      1.000     O          -0.6363270000000001           
         O16       1.0000    0.34130   0.63820   0.88910   Biso      1.000     O          -0.6689930000000001           
         O17       1.0000    0.14970   0.61390   0.34210   Biso      1.000     O          -0.745294           
         O18       1.0000    0.33200   0.51080   0.26800   Biso      1.000     O          -0.545139           
         O19       1.0000    0.03680   0.70570   0.75110   Biso      1.000     O          -0.6363270000000001           
         O20       1.0000    0.84130   0.86180   0.38910   Biso      1.000     O          -0.6689930000000001           
         O21       1.0000    0.78280   0.78750   0.58380   Biso      1.000     O          -0.611969           
         O22       1.0000    0.64970   0.88610   0.84210   Biso      1.000     O          -0.745293           
         O23       1.0000    0.28280   0.71250   0.08380   Biso      1.000     O          -0.6119680000000001           
         O24       1.0000    0.95050   0.43230   0.37320   Biso      1.000     O          -0.602665 