
##########################################################################
#               Crystallographic Information Format file
#               Produced by PyCifRW module
#
#  This is a CIF file.  CIF has been adopted by the International
#  Union of Crystallography as the standard for data archiving and
#  transmission.
#
#  For information on this file format, follow the CIF links at
#  http://www.iucr.org
##########################################################################

data_image0

_cell_length_a                          11.583
_cell_length_b                          11.665
_cell_length_c                          14.159
_cell_angle_alpha                       93.932
_cell_angle_beta                        111.98
_cell_angle_gamma                       110.018
_symmetry_space_group_name_H-M          'P 1'
_symmetry_int_tables_number             1
loop_
  _symmetry_equiv_pos_as_xyz
         'x, y, z' 
loop_
  _atom_site_label
  _atom_site_occupancy
  _atom_site_fract_x
  _atom_site_fract_y
  _atom_site_fract_z
  _atom_site_thermal_displace_type
  _atom_site_B_iso_or_equiv
  _atom_site_type_symbol
  _atom_site_charge
         C1        1.0000    0.64170   0.90740   0.33210   Biso      1.000     C          0.634253  
         C2        1.0000    0.24430   0.09960   0.57720   Biso      1.000     C          -0.267809           
         C3        1.0000    0.35830   0.09260   0.66790   Biso      1.000     C          0.6341289999999999  
         C4        1.0000    0.08850   0.88910   0.48180   Biso      1.000     C          0.431584  
         C5        1.0000    0.92950   0.69730   0.39970   Biso      1.000     C          0.47101499999999996           
         C6        1.0000    0.78980   0.65660   0.21170   Biso      1.000     C          -0.23727600000000001          
         C7        1.0000    0.87340   0.66220   0.15510   Biso      1.000     C          0.500422  
         C8        1.0000    0.74690   0.49270   0.31400   Biso      1.000     C          -0.251253           
         C9        1.0000    0.63490   0.48800   0.34300   Biso      1.000     C          0.63226   
         C10       1.0000    0.02390   0.75140   0.57300   Biso      1.000     C          0.480108  
         C11       1.0000    0.96040   0.59690   0.66950   Biso      1.000     C          -0.242141           
         C12       1.0000    0.81290   0.56840   0.64090   Biso      1.000     C          0.629855  
         C13       1.0000    0.10490   0.81980   0.76100   Biso      1.000     C          -0.23951999999999998          
         C14       1.0000    0.25580   0.85910   0.81900   Biso      1.000     C          0.628379  
         C15       1.0000    0.67870   0.92090   0.61630   Biso      1.000     C          0.6514939999999999  
         C16       1.0000    0.82330   0.96230   0.61440   Biso      1.000     C          -0.272046           
         C17       1.0000    0.75570   0.90040   0.42280   Biso      1.000     C          -0.26818600000000004          
         C18       1.0000    0.91150   0.11090   0.51820   Biso      1.000     C          0.43196   
         C19       1.0000    0.07050   0.30270   0.60030   Biso      1.000     C          0.47301499999999996           
         C20       1.0000    0.21020   0.34340   0.78830   Biso      1.000     C          -0.226188           
         C21       1.0000    0.12660   0.33780   0.84490   Biso      1.000     C          0.503903  
         C22       1.0000    0.25310   0.50730   0.68600   Biso      1.000     C          -0.248977           
         C23       1.0000    0.36510   0.51200   0.65700   Biso      1.000     C          0.631529  
         C24       1.0000    0.97610   0.24860   0.42700   Biso      1.000     C          0.47963999999999996           
         C25       1.0000    0.03960   0.40310   0.33050   Biso      1.000     C          -0.24381399999999998          
         C26       1.0000    0.18710   0.43160   0.35910   Biso      1.000     C          0.629039  
         C27       1.0000    0.89510   0.18020   0.23900   Biso      1.000     C          -0.24002199999999999          
         C28       1.0000    0.74420   0.14090   0.18100   Biso      1.000     C          0.629005  
         C29       1.0000    0.17670   0.03770   0.38560   Biso      1.000     C          -0.272154           
         C30       1.0000    0.32130   0.07910   0.38370   Biso      1.000     C          0.651406  
         Cu1       1.0000    0.39120   0.35341   0.35517   Biso      1.000     Cu          0.809191  
         Cu2       1.0000    0.60880   0.64659   0.64483   Biso      1.000     Cu          0.806562  
         Cu3       1.0000    0.63157   0.08732   0.47549   Biso      1.000     Cu          0.877609  
         Cu4       1.0000    0.50000   0.00000   0.00000   Biso      1.000     Cu          0.7689050000000001  
         Cu5       1.0000    0.36843   0.91268   0.52451   Biso      1.000     Cu          0.87715   
         H1        1.0000    0.91270   0.10560   0.25730   Biso      1.000     H          0.146049  
         H2        1.0000    0.11040   0.96540   0.32660   Biso      1.000     H          0.166138  
         H3        1.0000    0.14620   0.10740   0.37610   Biso      1.000     H          0.148115  
         H4        1.0000    0.27890   0.18080   0.55870   Biso      1.000     H          0.158626  
         H5        1.0000    0.17410   0.10080   0.60070   Biso      1.000     H          0.130666  
         H6        1.0000    0.69490   0.60000   0.16510   Biso      1.000     H          0.163602  
         H7        1.0000    0.79140   0.74120   0.22820   Biso      1.000     H          0.151116  
         H8        1.0000    0.70700   0.43490   0.24510   Biso      1.000     H          0.16059500000000002           
         H9        1.0000    0.93730   0.20950   0.19120   Biso      1.000     H          0.157223  
         H10       1.0000    0.80610   0.46060   0.36560   Biso      1.000     H          0.144617  
         H11       1.0000    0.96650   0.53590   0.62140   Biso      1.000     H          0.137156  
         H12       1.0000    0.08730   0.89440   0.74270   Biso      1.000     H          0.145295  
         H13       1.0000    0.06270   0.79050   0.80880   Biso      1.000     H          0.156647  
         H14       1.0000    0.88960   0.03460   0.67340   Biso      1.000     H          0.166546  
         H15       1.0000    0.85380   0.89260   0.62390   Biso      1.000     H          0.14870899999999998           
         H16       1.0000    0.72110   0.81920   0.44130   Biso      1.000     H          0.15903299999999998           
         H17       1.0000    0.82590   0.89920   0.39930   Biso      1.000     H          0.130967  
         H18       1.0000    0.30510   0.40000   0.83490   Biso      1.000     H          0.163873  
         H19       1.0000    0.20860   0.25880   0.77180   Biso      1.000     H          0.151923  
         H20       1.0000    0.29300   0.56510   0.75490   Biso      1.000     H          0.160803  
         H21       1.0000    0.19390   0.53940   0.63440   Biso      1.000     H          0.14526   
         H22       1.0000    0.03350   0.46410   0.37860   Biso      1.000     H          0.137683  
         H23       1.0000    0.99770   0.41480   0.25890   Biso      1.000     H          0.163666  
         H24       1.0000    0.00230   0.58520   0.74110   Biso      1.000     H          0.16281500000000002           
         N1        1.0000    0.16940   0.38610   0.69150   Biso      1.000     N          -0.000513           
         N2        1.0000    0.90310   0.12980   0.42560   Biso      1.000     N          -0.518426           
         N3        1.0000    0.96280   0.27860   0.33470   Biso      1.000     N          -0.018045           
         N4        1.0000    0.99850   0.19070   0.61120   Biso      1.000     N          -0.502685           
         N5        1.0000    0.06180   0.34040   0.51170   Biso      1.000     N          -0.48524799999999996          
         N6        1.0000    0.82070   0.99680   0.51600   Biso      1.000     N          -0.07426  
         N7        1.0000    0.93820   0.65960   0.48830   Biso      1.000     N          -0.484584           
         N8        1.0000    0.03720   0.72140   0.66530   Biso      1.000     N          -0.025516           
         N9        1.0000    0.83060   0.61390   0.30850   Biso      1.000     N          0.013268  
         N10       1.0000    0.00150   0.80930   0.38880   Biso      1.000     N          -0.501726           
         N11       1.0000    0.17930   0.00320   0.48400   Biso      1.000     N          -0.07731  
         N12       1.0000    0.09690   0.87020   0.57440   Biso      1.000     N          -0.513659           
         O1        1.0000    0.26890   0.54350   0.37990   Biso      1.000     O          -0.479325           
         O2        1.0000    0.22030   0.33820   0.35410   Biso      1.000     O          -0.565995           
         O3        1.0000    0.43350   0.61600   0.64580   Biso      1.000     O          -0.5360159999999999           
         O4        1.0000    0.38860   0.41550   0.64650   Biso      1.000     O          -0.5018819999999999           
         O5        1.0000    0.18160   0.29910   0.93890   Biso      1.000     O          -0.341285           
         O6        1.0000    0.02050   0.37600   0.80420   Biso      1.000     O          -0.440863           
         O7        1.0000    0.60990   0.84580   0.24610   Biso      1.000     O          -0.395043           
         O8        1.0000    0.57780   0.97040   0.34800   Biso      1.000     O          -0.514456           
         O9        1.0000    0.59550   0.95810   0.55600   Biso      1.000     O          -0.563649           
         O10       1.0000    0.66540   0.85980   0.68350   Biso      1.000     O          -0.49517700000000003          
         O11       1.0000    0.30900   0.93980   0.90420   Biso      1.000     O          -0.52565  
         O12       1.0000    0.73110   0.45650   0.62010   Biso      1.000     O          -0.48837299999999995          
         O13       1.0000    0.77970   0.66180   0.64590   Biso      1.000     O          -0.567912           
         O14       1.0000    0.56650   0.38400   0.35420   Biso      1.000     O          -0.531856           
         O15       1.0000    0.61140   0.58450   0.35350   Biso      1.000     O          -0.511035           
         O16       1.0000    0.81840   0.70090   0.06110   Biso      1.000     O          -0.32193499999999997          
         O17       1.0000    0.97950   0.62400   0.19580   Biso      1.000     O          -0.44633500000000004          
         O18       1.0000    0.39010   0.15420   0.75390   Biso      1.000     O          -0.396093           
         O19       1.0000    0.42220   0.02960   0.65200   Biso      1.000     O          -0.514097           
         O20       1.0000    0.40450   0.04190   0.44400   Biso      1.000     O          -0.563558           
         O21       1.0000    0.33460   0.14020   0.31650   Biso      1.000     O          -0.496516           
         O22       1.0000    0.68090   0.18530   0.21580   Biso      1.000     O          -0.498417           
         O23       1.0000    0.31910   0.81470   0.78420   Biso      1.000     O          -0.498112           
         O24       1.0000    0.69100   0.06020   0.09580   Biso      1.000     O          -0.527864 