
##########################################################################
#               Crystallographic Information Format file
#               Produced by PyCifRW module
#
#  This is a CIF file.  CIF has been adopted by the International
#  Union of Crystallography as the standard for data archiving and
#  transmission.
#
#  For information on this file format, follow the CIF links at
#  http://www.iucr.org
##########################################################################

data_image0

_cell_length_a                          9.0056
_cell_length_b                          10.7263
_cell_length_c                          12.9899
_cell_angle_alpha                       104.047
_cell_angle_beta                        90
_cell_angle_gamma                       90
_symmetry_space_group_name_H-M          'P 1'
_symmetry_int_tables_number             1
loop_
  _symmetry_equiv_pos_as_xyz
         'x, y, z' 
loop_
  _atom_site_label
  _atom_site_occupancy
  _atom_site_fract_x
  _atom_site_fract_y
  _atom_site_fract_z
  _atom_site_thermal_displace_type
  _atom_site_B_iso_or_equiv
  _atom_site_type_symbol
  _atom_site_charge
         C1        1.0000    0.25910   0.36100   0.73610   Biso      1.000     C          -0.177673           
         C2        1.0000    0.10470   0.55490   0.67650   Biso      1.000     C          0.33107600000000004           
         C3        1.0000    0.10410   0.19140   0.61680   Biso      1.000     C          0.594648  
         C4        1.0000    0.21590   0.58220   0.75090   Biso      1.000     C          -0.29008  
         C5        1.0000    0.06830   0.42750   0.63290   Biso      1.000     C          -0.259807           
         C6        1.0000    0.14540   0.33080   0.66370   Biso      1.000     C          0.009676  
         C7        1.0000    0.29570   0.48760   0.77980   Biso      1.000     C          0.015578  
         C8        1.0000    0.42170   0.52350   0.85670   Biso      1.000     C          0.583175  
         C9        1.0000    0.01250   0.73130   0.05250   Biso      1.000     C          -0.26409099999999996          
         C10       1.0000    0.89140   0.65690   0.06110   Biso      1.000     C          0.113204  
         C11       1.0000    0.74220   0.09930   0.34940   Biso      1.000     C          0.12159   
         C12       1.0000    0.64080   0.09490   0.26980   Biso      1.000     C          -0.288914           
         C13       1.0000    0.59630   0.97470   0.20960   Biso      1.000     C          0.328139  
         C14       1.0000    0.64870   0.86920   0.23840   Biso      1.000     C          -0.249096           
         C15       1.0000    0.74320   0.88360   0.32090   Biso      1.000     C          0.100386  
         C16       1.0000    0.43760   0.05890   0.09580   Biso      1.000     C          -0.077016           
         C17       1.0000    0.24330   0.89680   0.02850   Biso      1.000     C          -0.083619           
         C18       1.0000    0.01830   0.78840   0.96970   Biso      1.000     C          0.329121  
         C19       1.0000    0.74220   0.90070   0.65060   Biso      1.000     C          0.11233   
         C20       1.0000    0.90110   0.76960   0.90040   Biso      1.000     C          -0.27857  
         C21       1.0000    0.64080   0.90510   0.73020   Biso      1.000     C          -0.29023699999999997          
         C22       1.0000    0.64870   0.13080   0.76160   Biso      1.000     C          -0.246523           
         C23       1.0000    0.34100   0.00000   0.00000   Biso      1.000     C          0.079742  
         C24       1.0000    0.10470   0.44510   0.32350   Biso      1.000     C          0.32963400000000004           
         C25       1.0000    0.10410   0.80860   0.38320   Biso      1.000     C          0.591518  
         C26       1.0000    0.21590   0.41780   0.24910   Biso      1.000     C          -0.252859           
         C27       1.0000    0.06830   0.57250   0.36710   Biso      1.000     C          -0.287725           
         C28       1.0000    0.14540   0.66920   0.33630   Biso      1.000     C          0.010414  
         C29       1.0000    0.25910   0.63900   0.26390   Biso      1.000     C          -0.183793           
         C30       1.0000    0.29570   0.51240   0.22020   Biso      1.000     C          0.001354  
         C31       1.0000    0.59630   0.02530   0.79040   Biso      1.000     C          0.327544  
         C32       1.0000    0.42170   0.47650   0.14330   Biso      1.000     C          0.583562  
         C33       1.0000    0.89140   0.34310   0.93890   Biso      1.000     C          0.10490999999999999           
         C34       1.0000    0.78570   0.30680   0.08570   Biso      1.000     C          0.094739  
         C35       1.0000    0.90110   0.23040   0.09960   Biso      1.000     C          -0.256789           
         C36       1.0000    0.01830   0.21160   0.03030   Biso      1.000     C          0.329395  
         C37       1.0000    0.24330   0.10320   0.97150   Biso      1.000     C          -0.08620499999999999          
         C38       1.0000    0.43760   0.94110   0.90420   Biso      1.000     C          -0.077471           
         C39       1.0000    0.74320   0.11640   0.67910   Biso      1.000     C          0.100547  
         C40       1.0000    0.01250   0.26870   0.94750   Biso      1.000     C          -0.27281  
         C41       1.0000    0.78570   0.69320   0.91430   Biso      1.000     C          0.103083  
         H1        1.0000    0.04992   0.74251   0.70593   Biso      1.000     H          0.340706  
         H2        1.0000    0.96771   0.39052   0.42730   Biso      1.000     H          0.335208  
         H3        1.0000    0.99240   0.59300   0.41690   Biso      1.000     H          0.129146  
         H4        1.0000    0.77580   0.17950   0.38680   Biso      1.000     H          0.091549  
         H5        1.0000    0.60280   0.17000   0.25630   Biso      1.000     H          0.14725   
         H6        1.0000    0.61950   0.78750   0.20130   Biso      1.000     H          0.153157  
         H7        1.0000    0.77450   0.81010   0.34070   Biso      1.000     H          0.094833  
         H8        1.0000    0.23770   0.33240   0.21740   Biso      1.000     H          0.1268    
         H9        1.0000    0.37730   0.10810   0.15340   Biso      1.000     H          0.112061  
         H10       1.0000    0.30260   0.82160   0.02970   Biso      1.000     H          0.11174400000000001           
         H11       1.0000    0.20030   0.92910   0.09830   Biso      1.000     H          0.109569  
         H12       1.0000    0.90030   0.80880   0.84390   Biso      1.000     H          0.126853  
         H13       1.0000    0.70770   0.68080   0.86600   Biso      1.000     H          0.093386  
         H14       1.0000    0.88790   0.61900   0.11830   Biso      1.000     H          0.093042  
         H15       1.0000    0.08900   0.74240   0.10210   Biso      1.000     H          0.151356  
         H16       1.0000    0.31150   0.29570   0.75570   Biso      1.000     H          0.12356900000000001           
         H17       1.0000    0.99240   0.40700   0.58310   Biso      1.000     H          0.11742899999999999           
         H18       1.0000    0.51170   0.11530   0.07730   Biso      1.000     H          0.103243  
         H19       1.0000    0.77580   0.82050   0.61320   Biso      1.000     H          0.097232  
         H20       1.0000    0.60280   0.83000   0.74370   Biso      1.000     H          0.14715   
         H21       1.0000    0.61950   0.21250   0.79870   Biso      1.000     H          0.153829  
         H22       1.0000    0.77450   0.18990   0.65930   Biso      1.000     H          0.09397799999999999           
         H23       1.0000    0.51170   0.88470   0.92270   Biso      1.000     H          0.103224  
         H24       1.0000    0.37730   0.89190   0.84660   Biso      1.000     H          0.105255  
         H25       1.0000    0.30260   0.17840   0.97030   Biso      1.000     H          0.111825  
         H26       1.0000    0.20030   0.07090   0.90170   Biso      1.000     H          0.102476  
         H27       1.0000    0.90030   0.19120   0.15610   Biso      1.000     H          0.142217  
         H28       1.0000    0.70770   0.31920   0.13400   Biso      1.000     H          0.0926    
         H29       1.0000    0.88790   0.38100   0.88170   Biso      1.000     H          0.090239  
         H30       1.0000    0.08900   0.25760   0.89790   Biso      1.000     H          0.14849400000000001           
         H31       1.0000    0.31150   0.70430   0.24430   Biso      1.000     H          0.121505  
         H32       1.0000    0.23770   0.66760   0.78260   Biso      1.000     H          0.11756199999999999           
         N1        1.0000    0.77950   0.36440   0.00620   Biso      1.000     N          -0.24785900000000002          
         N2        1.0000    0.79480   0.00240   0.62380   Biso      1.000     N          -0.238965           
         N3        1.0000    0.79480   0.99760   0.37620   Biso      1.000     N          -0.23676999999999998          
         N4        1.0000    0.77950   0.63560   0.99380   Biso      1.000     N          -0.24419899999999997          
         O1        1.0000    0.02940   0.35000   0.35270   Biso      1.000     O          -0.42916400000000005          
         O2        1.0000    0.50620   0.04550   0.87420   Biso      1.000     O          -0.159959           
         O3        1.0000    0.12890   0.13670   0.04870   Biso      1.000     O          -0.168697           
         O4        1.0000    0.15350   0.89090   0.34540   Biso      1.000     O          -0.56621  
         O5        1.0000    0.01390   0.82790   0.45980   Biso      1.000     O          -0.5827939999999999           
         O6        1.0000    0.50350   0.56680   0.12800   Biso      1.000     O          -0.5646680000000001           
         O7        1.0000    0.44400   0.36490   0.09870   Biso      1.000     O          -0.569075           
         O8        1.0000    0.02940   0.65000   0.64730   Biso      1.000     O          -0.42928900000000003          
         O9        1.0000    0.12890   0.86330   0.95130   Biso      1.000     O          -0.181239           
         O10       1.0000    0.15350   0.10910   0.65460   Biso      1.000     O          -0.569446           
         O11       1.0000    0.01390   0.17210   0.54020   Biso      1.000     O          -0.581831           
         O12       1.0000    0.50350   0.43320   0.87200   Biso      1.000     O          -0.562821           
         O13       1.0000    0.44400   0.63510   0.90130   Biso      1.000     O          -0.5662159999999999           
         O14       1.0000    0.50620   0.95450   0.12580   Biso      1.000     O          -0.162097           
         Zn1       1.0000    0.93446   0.00000   0.50000   Biso      1.000     Zn          0.7555069999999999  
         Zn2       1.0000    0.61926   0.50000   0.00000   Biso      1.000     Zn          0.745217 