
##########################################################################
#               Crystallographic Information Format file
#               Produced by PyCifRW module
#
#  This is a CIF file.  CIF has been adopted by the International
#  Union of Crystallography as the standard for data archiving and
#  transmission.
#
#  For information on this file format, follow the CIF links at
#  http://www.iucr.org
##########################################################################

data_image0

_cell_length_a                          8.0231
_cell_length_b                          9.5304
_cell_length_c                          15.4714
_cell_angle_alpha                       96.709
_cell_angle_beta                        103.637
_cell_angle_gamma                       99.063
_symmetry_space_group_name_H-M          'P 1'
_symmetry_int_tables_number             1
loop_
  _symmetry_equiv_pos_as_xyz
         'x, y, z' 
loop_
  _atom_site_label
  _atom_site_occupancy
  _atom_site_fract_x
  _atom_site_fract_y
  _atom_site_fract_z
  _atom_site_thermal_displace_type
  _atom_site_B_iso_or_equiv
  _atom_site_type_symbol
  _atom_site_charge
         C1        1.0000    0.16140   0.82850   0.02270   Biso      1.000     C          0.09597699999999999           
         C2        1.0000    0.12820   0.83930   0.74910   Biso      1.000     C          0.217685  
         C3        1.0000    0.13810   0.77150   0.61130   Biso      1.000     C          0.117028  
         C4        1.0000    0.26070   0.23370   0.63150   Biso      1.000     C          0.572861  
         C5        1.0000    0.45690   0.40840   0.76470   Biso      1.000     C          -0.11831199999999999          
         C6        1.0000    0.31110   0.37850   0.69040   Biso      1.000     C          0.026491000000000004          
         C7        1.0000    0.21450   0.48590   0.67040   Biso      1.000     C          -0.209078           
         C8        1.0000    0.26770   0.62080   0.72290   Biso      1.000     C          0.16556700000000002           
         C9        1.0000    0.41150   0.65100   0.79810   Biso      1.000     C          -0.204019           
         C10       1.0000    0.50480   0.54300   0.81980   Biso      1.000     C          0.010559  
         C11       1.0000    0.65950   0.57220   0.90310   Biso      1.000     C          0.577438  
         C12       1.0000    0.21700   0.95770   0.99910   Biso      1.000     C          -0.111892           
         C13       1.0000    0.08180   0.71410   0.87590   Biso      1.000     C          0.041867  
         C14       1.0000    0.34050   0.42780   0.09690   Biso      1.000     C          0.57745   
         C15       1.0000    0.49520   0.45700   0.18020   Biso      1.000     C          0.010553  
         C16       1.0000    0.58850   0.34900   0.20190   Biso      1.000     C          -0.204015           
         C17       1.0000    0.73230   0.37920   0.27710   Biso      1.000     C          0.165562  
         C18       1.0000    0.78550   0.51410   0.32960   Biso      1.000     C          -0.20908000000000002          
         C19       1.0000    0.68890   0.62150   0.30960   Biso      1.000     C          0.026489  
         C20       1.0000    0.54310   0.59160   0.23530   Biso      1.000     C          -0.118315           
         C21       1.0000    0.73930   0.76630   0.36850   Biso      1.000     C          0.572865  
         C22       1.0000    0.86190   0.22850   0.38870   Biso      1.000     C          0.117028  
         C23       1.0000    0.87180   0.16070   0.25090   Biso      1.000     C          0.21768600000000002           
         C24       1.0000    0.86170   0.15910   0.15460   Biso      1.000     C          -0.003225           
         C25       1.0000    0.79610   0.03220   0.09250   Biso      1.000     C          -0.050562           
         C26       1.0000    0.78300   0.04230   0.00090   Biso      1.000     C          -0.111898           
         C27       1.0000    0.83860   0.17150   0.97730   Biso      1.000     C          0.095983  
         C28       1.0000    0.91820   0.28590   0.12410   Biso      1.000     C          0.041866  
         C29       1.0000    0.13830   0.84090   0.84540   Biso      1.000     C          -0.0032240000000000003        
         C30       1.0000    0.20390   0.96780   0.90750   Biso      1.000     C          -0.050564           
         Co1       1.0000    0.00000   0.50000   0.00000   Biso      1.000     Co          0.836275  
         Co2       1.0000    0.00000   0.00000   0.50000   Biso      1.000     Co          0.882235  
         H1        1.0000    0.96630   0.37080   0.16730   Biso      1.000     H          0.101145  
         H2        1.0000    0.44500   0.74390   0.83390   Biso      1.000     H          0.130211  
         H3        1.0000    0.11310   0.46650   0.62120   Biso      1.000     H          0.132881  
         H4        1.0000    0.15650   0.71900   0.55940   Biso      1.000     H          0.128892  
         H5        1.0000    0.23820   0.05700   0.88890   Biso      1.000     H          0.1389    
         H6        1.0000    0.26430   0.04050   0.04400   Biso      1.000     H          0.1355    
         H7        1.0000    0.17190   0.82440   0.08480   Biso      1.000     H          0.10695999999999999           
         H8        1.0000    0.52430   0.33640   0.77790   Biso      1.000     H          0.13072   
         H9        1.0000    0.55500   0.25610   0.16610   Biso      1.000     H          0.130211  
         H10       1.0000    0.88690   0.53350   0.37880   Biso      1.000     H          0.132879  
         H11       1.0000    0.47570   0.66360   0.22210   Biso      1.000     H          0.130717  
         H12       1.0000    0.84350   0.28100   0.44060   Biso      1.000     H          0.128892  
         H13       1.0000    0.76180   0.94300   0.11110   Biso      1.000     H          0.138903  
         H14       1.0000    0.73570   0.95950   0.95600   Biso      1.000     H          0.1355    
         H15       1.0000    0.82810   0.17560   0.91520   Biso      1.000     H          0.10695999999999999           
         H16       1.0000    0.03370   0.62920   0.83270   Biso      1.000     H          0.101145  
         N1        1.0000    0.90810   0.29440   0.03710   Biso      1.000     N          -0.22326500000000002          
         N2        1.0000    0.93590   0.06750   0.30041   Biso      1.000     N          -0.23575300000000002          
         N3        1.0000    0.92790   0.11230   0.38796   Biso      1.000     N          -0.177619           
         N4        1.0000    0.82270   0.26460   0.30392   Biso      1.000     N          -0.056429999999999994         
         N5        1.0000    0.07210   0.88770   0.61204   Biso      1.000     N          -0.177625           
         N6        1.0000    0.06410   0.93250   0.69959   Biso      1.000     N          -0.235744           
         N7        1.0000    0.17730   0.73540   0.69608   Biso      1.000     N          -0.056429999999999994         
         N8        1.0000    0.09190   0.70560   0.96290   Biso      1.000     N          -0.22326500000000002          
         O1        1.0000    0.32640   0.32040   0.03862   Biso      1.000     O          -0.570216           
         O2        1.0000    0.23850   0.51840   0.09318   Biso      1.000     O          -0.573647           
         O3        1.0000    0.10470   0.19760   0.58259   Biso      1.000     O          -0.588784           
         O4        1.0000    0.62220   0.84210   0.36728   Biso      1.000     O          -0.5671350000000001           
         O5        1.0000    0.76150   0.48160   0.90682   Biso      1.000     O          -0.573651           
         O6        1.0000    0.67360   0.67960   0.96138   Biso      1.000     O          -0.5702119999999999           
         O7        1.0000    0.37780   0.15790   0.63272   Biso      1.000     O          -0.5671350000000001           
         O8        1.0000    0.89530   0.80240   0.41741   Biso      1.000     O          -0.588784 