
##########################################################################
#               Crystallographic Information Format file
#               Produced by PyCifRW module
#
#  This is a CIF file.  CIF has been adopted by the International
#  Union of Crystallography as the standard for data archiving and
#  transmission.
#
#  For information on this file format, follow the CIF links at
#  http://www.iucr.org
##########################################################################

data_image0

_cell_length_a                          8.7486
_cell_length_b                          10.9823
_cell_length_c                          12.307
_cell_angle_alpha                       68.658
_cell_angle_beta                        86.191
_cell_angle_gamma                       79.532
_symmetry_space_group_name_H-M          'P 1'
_symmetry_int_tables_number             1
loop_
  _symmetry_equiv_pos_as_xyz
         'x, y, z' 
loop_
  _atom_site_label
  _atom_site_occupancy
  _atom_site_fract_x
  _atom_site_fract_y
  _atom_site_fract_z
  _atom_site_thermal_displace_type
  _atom_site_B_iso_or_equiv
  _atom_site_type_symbol
  _atom_site_charge
         C1        1.0000    0.20280   0.39250   0.93700   Biso      1.000     C          0.081756  
         C2        1.0000    0.64350   0.44980   0.65200   Biso      1.000     C          -0.145788           
         C3        1.0000    0.48460   0.19040   0.58170   Biso      1.000     C          0.636423  
         C4        1.0000    0.11560   0.32750   0.03410   Biso      1.000     C          -0.15392  
         C5        1.0000    0.18300   0.25950   0.14190   Biso      1.000     C          -0.097105           
         C6        1.0000    0.33950   0.25090   0.15860   Biso      1.000     C          -0.039746           
         C7        1.0000    0.42810   0.31700   0.06240   Biso      1.000     C          -0.101696           
         C8        1.0000    0.35960   0.38550   0.95490   Biso      1.000     C          -0.149355           
         C9        1.0000    0.40870   0.17400   0.27730   Biso      1.000     C          0.671138  
         C10       1.0000    0.94330   0.20560   0.42220   Biso      1.000     C          0.688249  
         C11       1.0000    0.95550   0.34670   0.34940   Biso      1.000     C          -0.023676           
         C12       1.0000    0.85940   0.41340   0.25210   Biso      1.000     C          -0.161329           
         C13       1.0000    0.87860   0.54000   0.17670   Biso      1.000     C          0.085152  
         C14       1.0000    0.98800   0.59870   0.20680   Biso      1.000     C          -0.191348           
         C15       1.0000    0.08400   0.53530   0.30290   Biso      1.000     C          0.085173  
         C16       1.0000    0.06850   0.40580   0.37490   Biso      1.000     C          -0.148526           
         C17       1.0000    0.19980   0.60610   0.32750   Biso      1.000     C          0.095316  
         C18       1.0000    0.15080   0.73220   0.33050   Biso      1.000     C          -0.151504           
         C19       1.0000    0.25440   0.80010   0.35640   Biso      1.000     C          -0.088439           
         C20       1.0000    0.40850   0.74260   0.38000   Biso      1.000     C          -0.034665           
         C21       1.0000    0.46020   0.61700   0.37270   Biso      1.000     C          -0.091684           
         C22       1.0000    0.35650   0.55020   0.34800   Biso      1.000     C          -0.145788           
         C23       1.0000    0.51540   0.80960   0.41830   Biso      1.000     C          0.636423  
         C24       1.0000    0.79720   0.60750   0.06300   Biso      1.000     C          0.081756  
         C25       1.0000    0.88440   0.67250   0.96590   Biso      1.000     C          -0.15392  
         C26       1.0000    0.81700   0.74050   0.85810   Biso      1.000     C          -0.097105           
         C27       1.0000    0.66050   0.74910   0.84140   Biso      1.000     C          -0.039746           
         C28       1.0000    0.57190   0.68300   0.93760   Biso      1.000     C          -0.101695           
         C29       1.0000    0.64040   0.61450   0.04510   Biso      1.000     C          -0.149355           
         C30       1.0000    0.59130   0.82600   0.72270   Biso      1.000     C          0.671138  
         C31       1.0000    0.53980   0.38300   0.62730   Biso      1.000     C          -0.091682           
         C32       1.0000    0.74560   0.19990   0.64360   Biso      1.000     C          -0.088439           
         C33       1.0000    0.59150   0.25740   0.62000   Biso      1.000     C          -0.034665           
         C34       1.0000    0.80020   0.39390   0.67250   Biso      1.000     C          0.095315  
         C35       1.0000    0.84920   0.26780   0.66950   Biso      1.000     C          -0.151504           
         C36       1.0000    0.04450   0.65330   0.65060   Biso      1.000     C          -0.023677           
         C37       1.0000    0.14060   0.58660   0.74790   Biso      1.000     C          -0.161329           
         C38       1.0000    0.12140   0.46000   0.82330   Biso      1.000     C          0.085152  
         C39       1.0000    0.05670   0.79440   0.57780   Biso      1.000     C          0.68825   
         C40       1.0000    0.01200   0.40130   0.79320   Biso      1.000     C          -0.191348           
         C41       1.0000    0.91600   0.46470   0.69710   Biso      1.000     C          0.085173  
         C42       1.0000    0.93150   0.59420   0.62510   Biso      1.000     C          -0.148525           
         H1        1.0000    0.21780   0.62670   0.76250   Biso      1.000     H          0.127904  
         H2        1.0000    0.86660   0.64000   0.56090   Biso      1.000     H          0.125678  
         H3        1.0000    0.95270   0.22800   0.68490   Biso      1.000     H          0.118158  
         H4        1.0000    0.78030   0.11530   0.64220   Biso      1.000     H          0.110615  
         H5        1.0000    0.43540   0.42110   0.61540   Biso      1.000     H          0.117004  
         H6        1.0000    0.60860   0.53370   0.65510   Biso      1.000     H          0.122855  
         H7        1.0000    0.01010   0.33060   0.02520   Biso      1.000     H          0.113768  
         H8        1.0000    0.12190   0.21850   0.20480   Biso      1.000     H          0.111734  
         H9        1.0000    0.53340   0.31440   0.07160   Biso      1.000     H          0.115916  
         H10       1.0000    0.00260   0.31480   0.84000   Biso      1.000     H          0.11625   
         H11       1.0000    0.42010   0.42820   0.89240   Biso      1.000     H          0.113813  
         H12       1.0000    0.13340   0.36000   0.43910   Biso      1.000     H          0.125678  
         H13       1.0000    0.99740   0.68520   0.16000   Biso      1.000     H          0.11625   
         H14       1.0000    0.04730   0.77200   0.31510   Biso      1.000     H          0.118157  
         H15       1.0000    0.21970   0.88470   0.35780   Biso      1.000     H          0.110615  
         H16       1.0000    0.56460   0.57890   0.38460   Biso      1.000     H          0.117004  
         H17       1.0000    0.39140   0.46630   0.34490   Biso      1.000     H          0.122855  
         H18       1.0000    0.98990   0.66940   0.97480   Biso      1.000     H          0.113768  
         H19       1.0000    0.87810   0.78150   0.79520   Biso      1.000     H          0.111734  
         H20       1.0000    0.46660   0.68560   0.92840   Biso      1.000     H          0.115916  
         H21       1.0000    0.57990   0.57180   0.10760   Biso      1.000     H          0.113813  
         H22       1.0000    0.78220   0.37330   0.23750   Biso      1.000     H          0.127904  
         O1        1.0000    0.65960   0.78360   0.40810   Biso      1.000     O          -0.628298           
         O2        1.0000    0.55220   0.13530   0.28630   Biso      1.000     O          -0.683827           
         O3        1.0000    0.45680   0.90080   0.45870   Biso      1.000     O          -0.776079           
         O4        1.0000    0.83140   0.16040   0.40270   Biso      1.000     O          -0.694848           
         O5        1.0000    0.04500   0.14070   0.49850   Biso      1.000     O          -0.718143           
         O6        1.0000    0.31250   0.15350   0.36050   Biso      1.000     O          -0.678948           
         O7        1.0000    0.44780   0.86470   0.71370   Biso      1.000     O          -0.683827           
         O8        1.0000    0.34040   0.21640   0.59190   Biso      1.000     O          -0.628298           
         O9        1.0000    0.16860   0.83960   0.59730   Biso      1.000     O          -0.694848           
         O10       1.0000    0.95500   0.85930   0.50150   Biso      1.000     O          -0.718143           
         O11       1.0000    0.68750   0.84650   0.63950   Biso      1.000     O          -0.678948           
         O12       1.0000    0.54320   0.09920   0.54130   Biso      1.000     O          -0.776079           
         Tb1       1.0000    0.28685   0.02104   0.55591   Biso      1.000     Tb          2.12202   
         Tb2       1.0000    0.71315   0.97896   0.44409   Biso      1.000     Tb          2.12202 