
##########################################################################
#               Crystallographic Information Format file
#               Produced by PyCifRW module
#
#  This is a CIF file.  CIF has been adopted by the International
#  Union of Crystallography as the standard for data archiving and
#  transmission.
#
#  For information on this file format, follow the CIF links at
#  http://www.iucr.org
##########################################################################

data_image0

_cell_length_a                          8.7159
_cell_length_b                          10.9737
_cell_length_c                          12.323
_cell_angle_alpha                       68.448
_cell_angle_beta                        86.196
_cell_angle_gamma                       79.605
_symmetry_space_group_name_H-M          'P 1'
_symmetry_int_tables_number             1
loop_
  _symmetry_equiv_pos_as_xyz
         'x, y, z' 
loop_
  _atom_site_label
  _atom_site_occupancy
  _atom_site_fract_x
  _atom_site_fract_y
  _atom_site_fract_z
  _atom_site_thermal_displace_type
  _atom_site_B_iso_or_equiv
  _atom_site_type_symbol
  _atom_site_charge
         C1        1.0000    0.20170   0.39180   0.93750   Biso      1.000     C          0.080352  
         C2        1.0000    0.35960   0.38670   0.95470   Biso      1.000     C          -0.147874           
         C3        1.0000    0.05640   0.79540   0.57700   Biso      1.000     C          0.691439  
         C4        1.0000    0.04470   0.65420   0.65000   Biso      1.000     C          -0.023959           
         C5        1.0000    0.14070   0.58720   0.74740   Biso      1.000     C          -0.160356           
         C6        1.0000    0.12090   0.46040   0.82280   Biso      1.000     C          0.085061  
         C7        1.0000    0.01170   0.40030   0.79390   Biso      1.000     C          -0.191492           
         C8        1.0000    0.91500   0.46430   0.69670   Biso      1.000     C          0.085654  
         C9        1.0000    0.93120   0.59360   0.62530   Biso      1.000     C          -0.14985  
         C10       1.0000    0.80020   0.39390   0.67240   Biso      1.000     C          0.09413   
         C11       1.0000    0.84910   0.26670   0.67000   Biso      1.000     C          -0.148655           
         C12       1.0000    0.74690   0.19920   0.64310   Biso      1.000     C          -0.091914           
         C13       1.0000    0.59150   0.25690   0.61920   Biso      1.000     C          -0.032772           
         C14       1.0000    0.53860   0.38110   0.62730   Biso      1.000     C          -0.093728           
         C15       1.0000    0.64240   0.44970   0.65140   Biso      1.000     C          -0.145684           
         C16       1.0000    0.48430   0.18790   0.58190   Biso      1.000     C          0.640083  
         C17       1.0000    0.42810   0.31600   0.06320   Biso      1.000     C          -0.104392           
         C18       1.0000    0.11500   0.32750   0.03390   Biso      1.000     C          -0.15282  
         C19       1.0000    0.40790   0.17260   0.27900   Biso      1.000     C          0.67116   
         C20       1.0000    0.94360   0.20460   0.42300   Biso      1.000     C          0.691439  
         C21       1.0000    0.95530   0.34580   0.35000   Biso      1.000     C          -0.023959           
         C22       1.0000    0.85930   0.41280   0.25260   Biso      1.000     C          -0.160356           
         C23       1.0000    0.59210   0.82740   0.72100   Biso      1.000     C          0.671161  
         C24       1.0000    0.64040   0.61330   0.04530   Biso      1.000     C          -0.147876           
         C25       1.0000    0.57190   0.68400   0.93680   Biso      1.000     C          -0.104391           
         C26       1.0000    0.66040   0.74890   0.84170   Biso      1.000     C          -0.037457           
         C27       1.0000    0.81760   0.74220   0.85750   Biso      1.000     C          -0.100138           
         C28       1.0000    0.88500   0.67250   0.96610   Biso      1.000     C          -0.152818           
         C29       1.0000    0.79830   0.60820   0.06250   Biso      1.000     C          0.080355  
         C30       1.0000    0.51570   0.81210   0.41810   Biso      1.000     C          0.640083  
         C31       1.0000    0.18240   0.25780   0.14250   Biso      1.000     C          -0.100138           
         C32       1.0000    0.35760   0.55030   0.34860   Biso      1.000     C          -0.145682           
         C33       1.0000    0.40850   0.74310   0.38080   Biso      1.000     C          -0.032774           
         C34       1.0000    0.25310   0.80080   0.35690   Biso      1.000     C          -0.091913           
         C35       1.0000    0.15090   0.73330   0.33000   Biso      1.000     C          -0.148652           
         C36       1.0000    0.19980   0.60610   0.32760   Biso      1.000     C          0.094128  
         C37       1.0000    0.06880   0.40640   0.37470   Biso      1.000     C          -0.149851           
         C38       1.0000    0.08500   0.53570   0.30330   Biso      1.000     C          0.085654  
         C39       1.0000    0.98830   0.59970   0.20610   Biso      1.000     C          -0.191494           
         C40       1.0000    0.87910   0.53960   0.17720   Biso      1.000     C          0.085063  
         C41       1.0000    0.46140   0.61890   0.37270   Biso      1.000     C          -0.093728           
         C42       1.0000    0.33960   0.25110   0.15830   Biso      1.000     C          -0.037454           
         Dy1       1.0000    0.71289   0.97940   0.44408   Biso      1.000     Dy          2.117173  
         Dy2       1.0000    0.28711   0.02060   0.55592   Biso      1.000     Dy          2.117174  
         H1        1.0000    0.58030   0.56860   0.10740   Biso      1.000     H          0.11371   
         H2        1.0000    0.21830   0.62720   0.76210   Biso      1.000     H          0.127797  
         H3        1.0000    0.00250   0.31360   0.84120   Biso      1.000     H          0.117571  
         H4        1.0000    0.86610   0.63940   0.56110   Biso      1.000     H          0.124691  
         H5        1.0000    0.95260   0.22650   0.68680   Biso      1.000     H          0.117101  
         H6        1.0000    0.43340   0.41800   0.61650   Biso      1.000     H          0.117472  
         H7        1.0000    0.60690   0.53390   0.65370   Biso      1.000     H          0.122254  
         H8        1.0000    0.00890   0.33140   0.02500   Biso      1.000     H          0.112248  
         H9        1.0000    0.12160   0.21530   0.20520   Biso      1.000     H          0.112286  
         H10       1.0000    0.53410   0.31190   0.07250   Biso      1.000     H          0.115511  
         H11       1.0000    0.78230   0.11490   0.64100   Biso      1.000     H          0.110543  
         H12       1.0000    0.78170   0.37280   0.23790   Biso      1.000     H          0.127796  
         H13       1.0000    0.99750   0.68640   0.15880   Biso      1.000     H          0.117571  
         H14       1.0000    0.13390   0.36060   0.43890   Biso      1.000     H          0.124691  
         H15       1.0000    0.04740   0.77350   0.31320   Biso      1.000     H          0.117101  
         H16       1.0000    0.21770   0.88510   0.35900   Biso      1.000     H          0.110543  
         H17       1.0000    0.56660   0.58200   0.38350   Biso      1.000     H          0.117473  
         H18       1.0000    0.39310   0.46610   0.34630   Biso      1.000     H          0.122254  
         H19       1.0000    0.99110   0.66860   0.97500   Biso      1.000     H          0.112248  
         H20       1.0000    0.87840   0.78470   0.79480   Biso      1.000     H          0.112286  
         H21       1.0000    0.46590   0.68810   0.92750   Biso      1.000     H          0.11551   
         H22       1.0000    0.41970   0.43140   0.89260   Biso      1.000     H          0.113709  
         O1        1.0000    0.45770   0.90060   0.45940   Biso      1.000     O          -0.771896           
         O2        1.0000    0.65990   0.78610   0.40760   Biso      1.000     O          -0.633069           
         O3        1.0000    0.83050   0.16040   0.40380   Biso      1.000     O          -0.694602           
         O4        1.0000    0.04520   0.13940   0.49980   Biso      1.000     O          -0.719592           
         O5        1.0000    0.55210   0.13430   0.28710   Biso      1.000     O          -0.686412           
         O6        1.0000    0.95480   0.86060   0.50020   Biso      1.000     O          -0.719591           
         O7        1.0000    0.54230   0.09940   0.54060   Biso      1.000     O          -0.771896           
         O8        1.0000    0.34010   0.21390   0.59240   Biso      1.000     O          -0.633069           
         O9        1.0000    0.16950   0.83960   0.59620   Biso      1.000     O          -0.694602           
         O10       1.0000    0.68880   0.84680   0.63940   Biso      1.000     O          -0.669579           
         O11       1.0000    0.31120   0.15320   0.36060   Biso      1.000     O          -0.669579           
         O12       1.0000    0.44790   0.86570   0.71290   Biso      1.000     O          -0.686412 