
##########################################################################
#               Crystallographic Information Format file
#               Produced by PyCifRW module
#
#  This is a CIF file.  CIF has been adopted by the International
#  Union of Crystallography as the standard for data archiving and
#  transmission.
#
#  For information on this file format, follow the CIF links at
#  http://www.iucr.org
##########################################################################

data_image0

_cell_length_a                          6.9082
_cell_length_b                          18.426
_cell_length_c                          18.583
_cell_angle_alpha                       111.98
_cell_angle_beta                        90
_cell_angle_gamma                       90
_symmetry_space_group_name_H-M          'P 1'
_symmetry_int_tables_number             1
loop_
  _symmetry_equiv_pos_as_xyz
         'x, y, z' 
loop_
  _atom_site_label
  _atom_site_occupancy
  _atom_site_fract_x
  _atom_site_fract_y
  _atom_site_fract_z
  _atom_site_thermal_displace_type
  _atom_site_B_iso_or_equiv
  _atom_site_type_symbol
  _atom_site_charge
         C1        1.0000    0.14570   0.50943   0.82340   Biso      1.000     C          0.557979  
         C2        1.0000    0.35320   0.31950   0.70517   Biso      1.000     C          0.117066  
         C3        1.0000    0.20570   0.55027   0.36969   Biso      1.000     C          0.5666359999999999  
         C4        1.0000    0.37280   0.50831   0.08905   Biso      1.000     C          0.69201   
         C5        1.0000    0.46540   0.30262   0.20976   Biso      1.000     C          0.6212529999999999  
         C6        1.0000    0.28350   0.50402   0.28911   Biso      1.000     C          0.144429  
         C7        1.0000    0.30180   0.53247   0.22990   Biso      1.000     C          -0.138525           
         C8        1.0000    0.37170   0.48211   0.15760   Biso      1.000     C          0.031726  
         C9        1.0000    0.41210   0.38349   0.21132   Biso      1.000     C          0.157252  
         C10       1.0000    0.36290   0.31708   0.62886   Biso      1.000     C          -0.131381           
         C11       1.0000    0.35430   0.00943   0.32340   Biso      1.000     C          0.557979  
         C12       1.0000    0.08070   0.75274   0.22878   Biso      1.000     C          0.657109  
         C13       1.0000    0.27500   0.94498   0.25132   Biso      1.000     C          0.134528  
         C14       1.0000    0.26300   0.94858   0.17751   Biso      1.000     C          -0.134202           
         C15       1.0000    0.19560   0.88337   0.11552   Biso      1.000     C          0.071784  
         C16       1.0000    0.13710   0.81708   0.12886   Biso      1.000     C          -0.131381           
         C17       1.0000    0.14680   0.81950   0.20517   Biso      1.000     C          0.117066  
         C18       1.0000    0.29430   0.05027   0.86969   Biso      1.000     C          0.5666359999999999  
         C19       1.0000    0.12720   0.00831   0.58905   Biso      1.000     C          0.69201   
         C20       1.0000    0.19510   0.88344   0.03373   Biso      1.000     C          0.581974  
         C21       1.0000    0.03460   0.80262   0.70976   Biso      1.000     C          0.621252  
         C22       1.0000    0.30440   0.38337   0.61552   Biso      1.000     C          0.071784  
         C23       1.0000    0.22500   0.44498   0.75132   Biso      1.000     C          0.134528  
         C24       1.0000    0.64570   0.99057   0.67660   Biso      1.000     C          0.557979  
         C25       1.0000    0.80490   0.11656   0.96627   Biso      1.000     C          0.581974  
         C26       1.0000    0.91930   0.24726   0.77122   Biso      1.000     C          0.657109  
         C27       1.0000    0.72500   0.05502   0.74868   Biso      1.000     C          0.134528  
         C28       1.0000    0.73700   0.05142   0.82249   Biso      1.000     C          -0.134202           
         C29       1.0000    0.80440   0.11663   0.88448   Biso      1.000     C          0.071784  
         C30       1.0000    0.86290   0.18292   0.87114   Biso      1.000     C          -0.131381           
         C31       1.0000    0.85320   0.18050   0.79483   Biso      1.000     C          0.117066  
         C32       1.0000    0.23700   0.44858   0.67751   Biso      1.000     C          -0.134202           
         C33       1.0000    0.70570   0.94973   0.13031   Biso      1.000     C          0.5666359999999999  
         C34       1.0000    0.96540   0.19738   0.29024   Biso      1.000     C          0.6212529999999999  
         C35       1.0000    0.78350   0.99598   0.21089   Biso      1.000     C          0.144429  
         C36       1.0000    0.80180   0.96753   0.27010   Biso      1.000     C          -0.138525           
         C37       1.0000    0.87170   0.01789   0.34240   Biso      1.000     C          0.031726  
         C38       1.0000    0.93400   0.09324   0.35157   Biso      1.000     C          -0.133197           
         C39       1.0000    0.91210   0.11651   0.28868   Biso      1.000     C          0.157252  
         C40       1.0000    0.30490   0.38344   0.53373   Biso      1.000     C          0.581974  
         C41       1.0000    0.41930   0.25274   0.72878   Biso      1.000     C          0.657109  
         C42       1.0000    0.87280   0.99169   0.41095   Biso      1.000     C          0.69201   
         C43       1.0000    0.21650   0.00402   0.78911   Biso      1.000     C          0.144429  
         C44       1.0000    0.43400   0.40676   0.14843   Biso      1.000     C          -0.133196           
         C45       1.0000    0.12830   0.98211   0.65760   Biso      1.000     C          0.031726  
         C46       1.0000    0.19820   0.03247   0.72990   Biso      1.000     C          -0.138526           
         C47       1.0000    0.58790   0.61651   0.78868   Biso      1.000     C          0.157252  
         C48       1.0000    0.56600   0.59324   0.85157   Biso      1.000     C          -0.133196           
         C49       1.0000    0.62830   0.51789   0.84240   Biso      1.000     C          0.031726  
         C50       1.0000    0.69820   0.46753   0.77010   Biso      1.000     C          -0.138525           
         C51       1.0000    0.71650   0.49598   0.71089   Biso      1.000     C          0.144429  
         C52       1.0000    0.53460   0.69738   0.79024   Biso      1.000     C          0.621252  
         C53       1.0000    0.62720   0.49169   0.91095   Biso      1.000     C          0.69201   
         C54       1.0000    0.64680   0.68050   0.29483   Biso      1.000     C          0.117066  
         C55       1.0000    0.79430   0.44973   0.63031   Biso      1.000     C          0.566635  
         C56       1.0000    0.69560   0.61663   0.38448   Biso      1.000     C          0.071784  
         C57       1.0000    0.76300   0.55142   0.32249   Biso      1.000     C          -0.134202           
         C58       1.0000    0.77500   0.55502   0.24868   Biso      1.000     C          0.134528  
         C59       1.0000    0.58070   0.74726   0.27122   Biso      1.000     C          0.657109  
         C60       1.0000    0.69510   0.61656   0.46627   Biso      1.000     C          0.581974  
         C61       1.0000    0.85430   0.49057   0.17660   Biso      1.000     C          0.557979  
         C62       1.0000    0.08790   0.88349   0.71132   Biso      1.000     C          0.157252  
         C63       1.0000    0.06600   0.90676   0.64843   Biso      1.000     C          -0.133196           
         C64       1.0000    0.63710   0.68292   0.37114   Biso      1.000     C          -0.131381           
         H1        1.0000    0.23170   0.08380   0.73810   Biso      1.000     H          0.148395  
         H2        1.0000    0.09310   0.77270   0.08850   Biso      1.000     H          0.135247  
         H3        1.0000    0.01200   0.87340   0.60200   Biso      1.000     H          0.150114  
         H4        1.0000    0.51200   0.62660   0.89800   Biso      1.000     H          0.150114  
         H5        1.0000    0.59310   0.72730   0.41150   Biso      1.000     H          0.135247  
         H6        1.0000    0.29940   0.99380   0.16990   Biso      1.000     H          0.13438699999999998           
         H7        1.0000    0.79940   0.50620   0.33010   Biso      1.000     H          0.13438699999999998           
         H8        1.0000    0.48800   0.37340   0.10200   Biso      1.000     H          0.150114  
         H9        1.0000    0.73170   0.41620   0.76190   Biso      1.000     H          0.148395  
         H10       1.0000    0.26830   0.58380   0.23810   Biso      1.000     H          0.148395  
         H11       1.0000    0.40690   0.27270   0.58850   Biso      1.000     H          0.135247  
         H12       1.0000    0.20060   0.49380   0.66990   Biso      1.000     H          0.13438699999999998           
         H13       1.0000    0.98800   0.12660   0.39800   Biso      1.000     H          0.150114  
         H14       1.0000    0.76830   0.91620   0.26190   Biso      1.000     H          0.148395  
         H15       1.0000    0.90690   0.22730   0.91150   Biso      1.000     H          0.135247  
         H16       1.0000    0.70060   0.00620   0.83010   Biso      1.000     H          0.13438699999999998           
         N1        1.0000    0.78510   0.11813   0.73569   Biso      1.000     N          -0.403484           
         N2        1.0000    0.83220   0.07024   0.22131   Biso      1.000     N          -0.44848599999999994          
         N3        1.0000    0.33220   0.42976   0.27869   Biso      1.000     N          -0.44848599999999994          
         N4        1.0000    0.21490   0.88187   0.26431   Biso      1.000     N          -0.403484           
         N5        1.0000    0.16780   0.92976   0.77869   Biso      1.000     N          -0.44848599999999994          
         N6        1.0000    0.71490   0.61813   0.23569   Biso      1.000     N          -0.403484           
         N7        1.0000    0.66780   0.57024   0.72131   Biso      1.000     N          -0.44848599999999994          
         N8        1.0000    0.28510   0.38187   0.76431   Biso      1.000     N          -0.403484           
         O1        1.0000    0.78450   0.05267   0.97582   Biso      1.000     O          -0.622159           
         O2        1.0000    0.18410   0.81908   0.97642   Biso      1.000     O          -0.628354           
         O3        1.0000    0.41400   0.07132   0.31932   Biso      1.000     O          -0.5172939999999999           
         O4        1.0000    0.35370   0.99393   0.38514   Biso      1.000     O          -0.6921510000000001           
         O5        1.0000    0.57380   0.25948   0.15823   Biso      1.000     O          -0.58949  
         O6        1.0000    0.39110   0.28622   0.26523   Biso      1.000     O          -0.690557           
         O7        1.0000    0.31580   0.45963   0.02548   Biso      1.000     O          -0.68299  
         O8        1.0000    0.42530   0.57796   0.10240   Biso      1.000     O          -0.6648930000000001           
         O9        1.0000    0.18210   0.62146   0.39036   Biso      1.000     O          -0.522243           
         O10       1.0000    0.16860   0.50974   0.41138   Biso      1.000     O          -0.704145           
         O11       1.0000    0.48790   0.19299   0.67646   Biso      1.000     O          -0.675527           
         O12       1.0000    0.39880   0.26267   0.79939   Biso      1.000     O          -0.6265189999999999           
         O13       1.0000    0.81590   0.18092   0.02358   Biso      1.000     O          -0.628354           
         O14       1.0000    0.28450   0.44733   0.52418   Biso      1.000     O          -0.622159           
         O15       1.0000    0.08600   0.57132   0.81932   Biso      1.000     O          -0.5172939999999999           
         O16       1.0000    0.14630   0.49393   0.88514   Biso      1.000     O          -0.6921510000000001           
         O17       1.0000    0.07380   0.24052   0.34177   Biso      1.000     O          -0.58949  
         O18       1.0000    0.89110   0.21378   0.23477   Biso      1.000     O          -0.690558           
         O19       1.0000    0.21550   0.94733   0.02418   Biso      1.000     O          -0.622159           
         O20       1.0000    0.92530   0.92204   0.39760   Biso      1.000     O          -0.6648930000000001           
         O21       1.0000    0.81580   0.04037   0.47452   Biso      1.000     O          -0.68299  
         O22       1.0000    0.68210   0.87854   0.10964   Biso      1.000     O          -0.522243           
         O23       1.0000    0.66860   0.99026   0.08862   Biso      1.000     O          -0.704145           
         O24       1.0000    0.98790   0.30701   0.82354   Biso      1.000     O          -0.675527           
         O25       1.0000    0.89880   0.23733   0.70061   Biso      1.000     O          -0.6265189999999999           
         O26       1.0000    0.31590   0.31908   0.47642   Biso      1.000     O          -0.628354           
         O27       1.0000    0.10120   0.76267   0.29939   Biso      1.000     O          -0.6265189999999999           
         O28       1.0000    0.64630   0.00607   0.61486   Biso      1.000     O          -0.6921510000000001           
         O29       1.0000    0.33140   0.00974   0.91138   Biso      1.000     O          -0.704145           
         O30       1.0000    0.58600   0.92868   0.68068   Biso      1.000     O          -0.5172939999999999           
         O31       1.0000    0.42620   0.74052   0.84177   Biso      1.000     O          -0.58949  
         O32       1.0000    0.60890   0.71378   0.73477   Biso      1.000     O          -0.690557           
         O33       1.0000    0.68420   0.54037   0.97452   Biso      1.000     O          -0.68299  
         O34       1.0000    0.57470   0.42204   0.89760   Biso      1.000     O          -0.6648930000000001           
         O35       1.0000    0.01210   0.69299   0.17646   Biso      1.000     O          -0.675527           
         O36       1.0000    0.83140   0.49026   0.58862   Biso      1.000     O          -0.704145           
         O37       1.0000    0.51210   0.80701   0.32354   Biso      1.000     O          -0.675527           
         O38       1.0000    0.60120   0.73733   0.20061   Biso      1.000     O          -0.6265189999999999           
         O39       1.0000    0.81790   0.37854   0.60964   Biso      1.000     O          -0.522243           
         O40       1.0000    0.68410   0.68092   0.52358   Biso      1.000     O          -0.628354           
         O41       1.0000    0.91400   0.42868   0.18068   Biso      1.000     O          -0.5172939999999999           
         O42       1.0000    0.85370   0.50607   0.11486   Biso      1.000     O          -0.6921510000000001           
         O43       1.0000    0.92620   0.75948   0.65823   Biso      1.000     O          -0.58949  
         O44       1.0000    0.10890   0.78622   0.76523   Biso      1.000     O          -0.690558           
         O45       1.0000    0.18420   0.95963   0.52548   Biso      1.000     O          -0.68299  
         O46       1.0000    0.07470   0.07796   0.60240   Biso      1.000     O          -0.6648930000000001           
         O47       1.0000    0.31790   0.12146   0.89036   Biso      1.000     O          -0.522243           
         O48       1.0000    0.71550   0.55267   0.47582   Biso      1.000     O          -0.622159           
         Tb1       1.0000    0.74807   0.62470   0.10391   Biso      1.000     Tb          2.061667  
         Tb2       1.0000    0.27694   0.87348   0.87723   Biso      1.000     Tb          2.042042  
         Tb3       1.0000    0.24807   0.87530   0.39609   Biso      1.000     Tb          2.061667  
         Tb4       1.0000    0.75193   0.12470   0.60391   Biso      1.000     Tb          2.061667  
         Tb5       1.0000    0.25193   0.37530   0.89609   Biso      1.000     Tb          2.061667  
         Tb6       1.0000    0.72306   0.12652   0.12277   Biso      1.000     Tb          2.042042  
         Tb7       1.0000    0.22306   0.37348   0.37723   Biso      1.000     Tb          2.042042  
         Tb8       1.0000    0.77694   0.62652   0.62277   Biso      1.000     Tb          2.0420409999999998 