
##########################################################################
#               Crystallographic Information Format file
#               Produced by PyCifRW module
#
#  This is a CIF file.  CIF has been adopted by the International
#  Union of Crystallography as the standard for data archiving and
#  transmission.
#
#  For information on this file format, follow the CIF links at
#  http://www.iucr.org
##########################################################################

data_image0

_cell_length_a                          6.6882
_cell_length_b                          15.1634
_cell_length_c                          15.1634
_cell_angle_alpha                       62.123
_cell_angle_beta                        81.5454
_cell_angle_gamma                       98.4546
_symmetry_space_group_name_H-M          'P 1'
_symmetry_int_tables_number             1
loop_
  _symmetry_equiv_pos_as_xyz
         'x, y, z' 
loop_
  _atom_site_label
  _atom_site_occupancy
  _atom_site_fract_x
  _atom_site_fract_y
  _atom_site_fract_z
  _atom_site_thermal_displace_type
  _atom_site_B_iso_or_equiv
  _atom_site_type_symbol
  _atom_site_charge
         C1        1.0000    0.93010   0.56140   0.53710   Biso      1.000     C          0.297117  
         C2        1.0000    0.17070   0.47190   0.52380   Biso      1.000     C          -0.150867           
         C3        1.0000    0.46720   0.53710   0.90150   Biso      1.000     C          0.29827800000000004           
         C4        1.0000    0.10570   0.53780   0.55370   Biso      1.000     C          -0.155684           
         C5        1.0000    0.24820   0.56890   0.61630   Biso      1.000     C          0.643767  
         C6        1.0000    0.30120   0.99570   0.52810   Biso      1.000     C          -0.150377           
         C7        1.0000    0.63130   0.09850   0.43860   Biso      1.000     C          0.29642399999999997           
         C8        1.0000    0.43210   0.09150   0.46220   Biso      1.000     C          -0.155073           
         C9        1.0000    0.32070   0.18520   0.43110   Biso      1.000     C          0.6424949999999999  
         C10       1.0000    0.30550   0.47620   0.99570   Biso      1.000     C          -0.153373           
         C11       1.0000    0.53280   0.46290   0.09850   Biso      1.000     C          0.29827800000000004           
         C12       1.0000    0.34060   0.44630   0.09150   Biso      1.000     C          -0.15379600000000002          
         C13       1.0000    0.13550   0.38370   0.18520   Biso      1.000     C          0.643299  
         C14       1.0000    0.82930   0.52810   0.47620   Biso      1.000     C          -0.150867           
         C15       1.0000    0.06990   0.43860   0.46290   Biso      1.000     C          0.297117  
         C16       1.0000    0.89430   0.46220   0.44630   Biso      1.000     C          -0.155684           
         C17       1.0000    0.75180   0.43110   0.38370   Biso      1.000     C          0.643767  
         C18       1.0000    0.69450   0.52380   0.00430   Biso      1.000     C          -0.153373           
         C19       1.0000    0.67930   0.81480   0.56890   Biso      1.000     C          0.6425    
         C20       1.0000    0.56790   0.90850   0.53780   Biso      1.000     C          -0.155121           
         C21       1.0000    0.36870   0.90150   0.56140   Biso      1.000     C          0.296464  
         C22       1.0000    0.69880   0.00430   0.47190   Biso      1.000     C          -0.15036300000000002          
         C23       1.0000    0.86450   0.61630   0.81480   Biso      1.000     C          0.643299  
         C24       1.0000    0.65940   0.55370   0.90850   Biso      1.000     C          -0.15379600000000002          
         H1        1.0000    0.89800   0.01200   0.45800   Biso      1.000     H          0.106803  
         H2        1.0000    0.88600   0.53000   0.01200   Biso      1.000     H          0.107242  
         H3        1.0000    0.35600   0.45800   0.53000   Biso      1.000     H          0.106851  
         H4        1.0000    0.10200   0.98800   0.54200   Biso      1.000     H          0.106804  
         H5        1.0000    0.11400   0.47000   0.98800   Biso      1.000     H          0.107242  
         H6        1.0000    0.64400   0.54200   0.47000   Biso      1.000     H          0.106851  
         Ni1       1.0000    0.69820   0.31370   0.26900   Biso      1.000     Ni          0.8954    
         Ni2       1.0000    0.61550   0.58270   0.68630   Biso      1.000     Ni          0.8952459999999999  
         Ni3       1.0000    0.03280   0.73100   0.58270   Biso      1.000     Ni          0.89492   
         Ni4       1.0000    0.30180   0.68630   0.73100   Biso      1.000     Ni          0.895401  
         Ni5       1.0000    0.38450   0.41730   0.31370   Biso      1.000     Ni          0.8952479999999999  
         Ni6       1.0000    0.96720   0.26900   0.41730   Biso      1.000     Ni          0.89492   
         O1        1.0000    0.88000   0.84570   0.52570   Biso      1.000     O          -0.527754           
         O2        1.0000    0.41210   0.55930   0.81000   Biso      1.000     O          -0.601974           
         O3        1.0000    0.83940   0.64690   0.73170   Biso      1.000     O          -0.5056189999999999           
         O4        1.0000    0.03430   0.62860   0.84570   Biso      1.000     O          -0.529324           
         O5        1.0000    0.85280   0.63070   0.55930   Biso      1.000     O          -0.6013189999999999           
         O6        1.0000    0.19250   0.62140   0.64690   Biso      1.000     O          -0.505555           
         O7        1.0000    0.40570   0.52570   0.62860   Biso      1.000     O          -0.529145           
         O8        1.0000    0.77790   0.19000   0.36930   Biso      1.000     O          -0.601861           
         O9        1.0000    0.12000   0.15430   0.47430   Biso      1.000     O          -0.527754           
         O10       1.0000    0.57110   0.73170   0.62140   Biso      1.000     O          -0.506128           
         O11       1.0000    0.58790   0.44070   0.19000   Biso      1.000     O          -0.601974           
         O12       1.0000    0.16060   0.35310   0.26830   Biso      1.000     O          -0.5056189999999999           
         O13       1.0000    0.96570   0.37140   0.15430   Biso      1.000     O          -0.529323           
         O14       1.0000    0.14720   0.36930   0.44070   Biso      1.000     O          -0.6013189999999999           
         O15       1.0000    0.80750   0.37860   0.35310   Biso      1.000     O          -0.505554           
         O16       1.0000    0.59430   0.47430   0.37140   Biso      1.000     O          -0.529146           
         O17       1.0000    0.42890   0.26830   0.37860   Biso      1.000     O          -0.506128           
         O18       1.0000    0.22210   0.81000   0.63070   Biso      1.000     O          -0.6018640000000001 