
##########################################################################
#               Crystallographic Information Format file
#               Produced by PyCifRW module
#
#  This is a CIF file.  CIF has been adopted by the International
#  Union of Crystallography as the standard for data archiving and
#  transmission.
#
#  For information on this file format, follow the CIF links at
#  http://www.iucr.org
##########################################################################

data_image0

_cell_length_a                          5.9795
_cell_length_b                          11.3592
_cell_length_c                          17.0583
_cell_angle_alpha                       90
_cell_angle_beta                        90
_cell_angle_gamma                       91.257
_symmetry_space_group_name_H-M          'P 1'
_symmetry_int_tables_number             1
loop_
  _symmetry_equiv_pos_as_xyz
         'x, y, z' 
loop_
  _atom_site_label
  _atom_site_occupancy
  _atom_site_fract_x
  _atom_site_fract_y
  _atom_site_fract_z
  _atom_site_thermal_displace_type
  _atom_site_B_iso_or_equiv
  _atom_site_type_symbol
  _atom_site_charge
         C1        1.0000    0.00550   0.70718   0.28766   Biso      1.000     C          -0.11278099999999999          
         C2        1.0000    0.48260   0.26777   0.28424   Biso      1.000     C          -0.119381           
         C3        1.0000    0.71870   0.21605   0.18302   Biso      1.000     C          -0.12828900000000001          
         C4        1.0000    0.80800   0.17094   0.10743   Biso      1.000     C          0.656982  
         C5        1.0000    0.21640   0.89490   0.12105   Biso      1.000     C          0.642977  
         C6        1.0000    0.17890   0.82053   0.19143   Biso      1.000     C          -0.138014           
         C7        1.0000    0.98260   0.76777   0.21576   Biso      1.000     C          -0.119378           
         C8        1.0000    0.67890   0.32053   0.30857   Biso      1.000     C          -0.138012           
         C9        1.0000    0.21870   0.71605   0.31698   Biso      1.000     C          -0.12828299999999998          
         C10       1.0000    0.28360   0.60510   0.62105   Biso      1.000     C          0.6429779999999999  
         C11       1.0000    0.32110   0.67947   0.69143   Biso      1.000     C          -0.138015           
         C12       1.0000    0.51740   0.73223   0.71576   Biso      1.000     C          -0.119377           
         C13       1.0000    0.49450   0.79282   0.78766   Biso      1.000     C          -0.112782           
         C14       1.0000    0.28130   0.78395   0.81698   Biso      1.000     C          -0.12828299999999998          
         C15       1.0000    0.19200   0.82906   0.89257   Biso      1.000     C          0.656981  
         C16       1.0000    0.30800   0.67094   0.39257   Biso      1.000     C          0.656982  
         C17       1.0000    0.71640   0.39490   0.37895   Biso      1.000     C          0.642977  
         C18       1.0000    0.50550   0.20718   0.21234   Biso      1.000     C          -0.112776           
         C19       1.0000    0.78130   0.28395   0.68302   Biso      1.000     C          -0.12828900000000001          
         C20       1.0000    0.99450   0.29282   0.71234   Biso      1.000     C          -0.112775           
         C21       1.0000    0.01740   0.23223   0.78424   Biso      1.000     C          -0.11938199999999999          
         C22       1.0000    0.82110   0.17947   0.80857   Biso      1.000     C          -0.138012           
         C23       1.0000    0.78360   0.10510   0.87895   Biso      1.000     C          0.642977  
         C24       1.0000    0.69200   0.32906   0.60743   Biso      1.000     C          0.656982  
         H1        1.0000    0.11600   0.33600   0.68650   Biso      1.000     H          0.127867  
         H2        1.0000    0.15600   0.22550   0.81250   Biso      1.000     H          0.11972200000000001           
         H3        1.0000    0.34400   0.27450   0.31250   Biso      1.000     H          0.11972200000000001           
         H4        1.0000    0.88400   0.66400   0.31350   Biso      1.000     H          0.127867  
         H5        1.0000    0.38400   0.16400   0.18650   Biso      1.000     H          0.127867  
         H6        1.0000    0.84400   0.77450   0.18750   Biso      1.000     H          0.11972200000000001           
         H7        1.0000    0.61600   0.83600   0.81350   Biso      1.000     H          0.127867  
         H8        1.0000    0.65600   0.72550   0.68750   Biso      1.000     H          0.11972100000000001           
         O1        1.0000    0.91337   0.42530   0.39650   Biso      1.000     O          -0.676153           
         O2        1.0000    0.17135   0.61925   0.43786   Biso      1.000     O          -0.695409           
         O3        1.0000    0.08663   0.57470   0.60350   Biso      1.000     O          -0.676153           
         O4        1.0000    0.45366   0.57317   0.58352   Biso      1.000     O          -0.686591           
         O5        1.0000    0.04634   0.92683   0.08352   Biso      1.000     O          -0.686591           
         O6        1.0000    0.41337   0.92530   0.10350   Biso      1.000     O          -0.676153           
         O7        1.0000    0.67135   0.11925   0.06214   Biso      1.000     O          -0.695409           
         O8        1.0000    0.01269   0.18995   0.09437   Biso      1.000     O          -0.653867           
         O9        1.0000    0.54634   0.42683   0.41648   Biso      1.000     O          -0.686591           
         O10       1.0000    0.51269   0.68995   0.40563   Biso      1.000     O          -0.653867           
         O11       1.0000    0.82865   0.38075   0.56214   Biso      1.000     O          -0.695409           
         O12       1.0000    0.32865   0.88075   0.93786   Biso      1.000     O          -0.695409           
         O13       1.0000    0.95366   0.07317   0.91648   Biso      1.000     O          -0.686591           
         O14       1.0000    0.58663   0.07470   0.89650   Biso      1.000     O          -0.676153           
         O15       1.0000    0.98731   0.81005   0.90563   Biso      1.000     O          -0.653866           
         O16       1.0000    0.48731   0.31005   0.59437   Biso      1.000     O          -0.653867           
         S1        1.0000    0.10750   0.70338   0.75621   Biso      1.000     S          0.15871500000000002           
         S2        1.0000    0.39250   0.79662   0.25621   Biso      1.000     S          0.15871500000000002           
         S3        1.0000    0.89250   0.29662   0.24379   Biso      1.000     S          0.15871500000000002           
         S4        1.0000    0.60750   0.20338   0.74379   Biso      1.000     S          0.15871500000000002           
         Sr1       1.0000    0.22232   0.40441   0.50190   Biso      1.000     Sr          1.5042149999999999  
         Sr2       1.0000    0.27768   0.09559   0.00190   Biso      1.000     Sr          1.504214  
         Sr3       1.0000    0.77768   0.59559   0.49810   Biso      1.000     Sr          1.504214  
         Sr4       1.0000    0.72232   0.90441   0.99810   Biso      1.000     Sr          1.504214 