
##########################################################################
#               Crystallographic Information Format file
#               Produced by PyCifRW module
#
#  This is a CIF file.  CIF has been adopted by the International
#  Union of Crystallography as the standard for data archiving and
#  transmission.
#
#  For information on this file format, follow the CIF links at
#  http://www.iucr.org
##########################################################################

data_image0

_cell_length_a                          6.0078
_cell_length_b                          16.9401
_cell_length_c                          13.0061
_cell_angle_alpha                       90
_cell_angle_beta                        116.158
_cell_angle_gamma                       90
_symmetry_space_group_name_H-M          'P 1'
_symmetry_int_tables_number             1
loop_
  _symmetry_equiv_pos_as_xyz
         'x, y, z' 
loop_
  _atom_site_label
  _atom_site_occupancy
  _atom_site_fract_x
  _atom_site_fract_y
  _atom_site_fract_z
  _atom_site_thermal_displace_type
  _atom_site_B_iso_or_equiv
  _atom_site_type_symbol
  _atom_site_charge
         C1        1.0000    0.63550   0.60591   0.32850   Biso      1.000     C          0.660316  
         C2        1.0000    0.20910   0.78169   0.22420   Biso      1.000     C          -0.122749           
         C3        1.0000    0.29250   0.71037   0.28510   Biso      1.000     C          -0.118774           
         C4        1.0000    0.49840   0.68086   0.27960   Biso      1.000     C          -0.124953           
         C5        1.0000    0.50160   0.31914   0.72040   Biso      1.000     C          -0.124963           
         C6        1.0000    0.31820   0.62306   0.60100   Biso      1.000     C          0.646832  
         C7        1.0000    0.35300   0.69389   0.67330   Biso      1.000     C          -0.13483299999999998          
         C8        1.0000    0.35300   0.80611   0.17330   Biso      1.000     C          -0.134828           
         C9        1.0000    0.20910   0.71831   0.72420   Biso      1.000     C          -0.122744           
         C10       1.0000    0.49840   0.81914   0.77960   Biso      1.000     C          -0.12496199999999999          
         C11       1.0000    0.63550   0.89409   0.82850   Biso      1.000     C          0.6603180000000001  
         C12       1.0000    0.68180   0.12306   0.89900   Biso      1.000     C          0.646832  
         C13       1.0000    0.64700   0.19389   0.82670   Biso      1.000     C          -0.13483299999999998          
         C14       1.0000    0.79090   0.21831   0.77580   Biso      1.000     C          -0.122744           
         C15       1.0000    0.70750   0.28963   0.71490   Biso      1.000     C          -0.11876600000000001          
         C16       1.0000    0.29250   0.78963   0.78510   Biso      1.000     C          -0.11876600000000001          
         C17       1.0000    0.31820   0.87694   0.10100   Biso      1.000     C          0.646831  
         C18       1.0000    0.36450   0.39409   0.67150   Biso      1.000     C          0.6603180000000001  
         C19       1.0000    0.79090   0.28169   0.27580   Biso      1.000     C          -0.122749           
         C20       1.0000    0.68180   0.37694   0.39900   Biso      1.000     C          0.646831  
         C21       1.0000    0.70750   0.21037   0.21490   Biso      1.000     C          -0.118774           
         C22       1.0000    0.64700   0.30611   0.32670   Biso      1.000     C          -0.134828           
         C23       1.0000    0.36450   0.10591   0.17150   Biso      1.000     C          0.660316  
         C24       1.0000    0.50160   0.18086   0.22040   Biso      1.000     C          -0.124953           
         H1        1.0000    0.07070   0.69080   0.71930   Biso      1.000     H          0.122397  
         H2        1.0000    0.92930   0.30920   0.28070   Biso      1.000     H          0.122397  
         H3        1.0000    0.78470   0.18600   0.17520   Biso      1.000     H          0.129687  
         H4        1.0000    0.21530   0.81400   0.82480   Biso      1.000     H          0.129686  
         H5        1.0000    0.07070   0.80920   0.21930   Biso      1.000     H          0.122397  
         H6        1.0000    0.92930   0.19080   0.78070   Biso      1.000     H          0.122397  
         H7        1.0000    0.78470   0.31400   0.67520   Biso      1.000     H          0.129686  
         H8        1.0000    0.21530   0.68600   0.32480   Biso      1.000     H          0.129687  
         O1        1.0000    0.88100   0.08548   0.93023   Biso      1.000     O          -0.6874939999999999           
         O2        1.0000    0.51560   0.10568   0.92877   Biso      1.000     O          -0.67887  
         O3        1.0000    0.44810   0.43790   0.61886   Biso      1.000     O          -0.696052           
         O4        1.0000    0.17860   0.40738   0.68845   Biso      1.000     O          -0.653692           
         O5        1.0000    0.88100   0.41452   0.43023   Biso      1.000     O          -0.6874939999999999           
         O6        1.0000    0.44810   0.06210   0.11886   Biso      1.000     O          -0.696052           
         O7        1.0000    0.17860   0.09262   0.18845   Biso      1.000     O          -0.653691           
         O8        1.0000    0.51560   0.39432   0.42877   Biso      1.000     O          -0.67887  
         O9        1.0000    0.48440   0.89432   0.07123   Biso      1.000     O          -0.67887  
         O10       1.0000    0.11900   0.58548   0.56977   Biso      1.000     O          -0.6874939999999999           
         O11       1.0000    0.48440   0.60568   0.57123   Biso      1.000     O          -0.67887  
         O12       1.0000    0.55190   0.93790   0.88114   Biso      1.000     O          -0.696052           
         O13       1.0000    0.82140   0.90738   0.81155   Biso      1.000     O          -0.653692           
         O14       1.0000    0.82140   0.59262   0.31155   Biso      1.000     O          -0.653692           
         O15       1.0000    0.11900   0.91452   0.06977   Biso      1.000     O          -0.6874939999999999           
         O16       1.0000    0.55190   0.56210   0.38114   Biso      1.000     O          -0.696052           
         S1        1.0000    0.40700   0.25853   0.79953   Biso      1.000     S          0.14915699999999998           
         S2        1.0000    0.59300   0.75853   0.70047   Biso      1.000     S          0.14915699999999998           
         S3        1.0000    0.59300   0.74147   0.20047   Biso      1.000     S          0.14915599999999998           
         S4        1.0000    0.40700   0.24147   0.29953   Biso      1.000     S          0.14915599999999998           
         Sr1       1.0000    0.81786   0.00053   0.09430   Biso      1.000     Sr          1.509024  
         Sr2       1.0000    0.18214   0.50053   0.40570   Biso      1.000     Sr          1.509024  
         Sr3       1.0000    0.18214   0.99947   0.90570   Biso      1.000     Sr          1.509024  
         Sr4       1.0000    0.81786   0.49947   0.59430   Biso      1.000     Sr          1.509024 