
##########################################################################
#               Crystallographic Information Format file
#               Produced by PyCifRW module
#
#  This is a CIF file.  CIF has been adopted by the International
#  Union of Crystallography as the standard for data archiving and
#  transmission.
#
#  For information on this file format, follow the CIF links at
#  http://www.iucr.org
##########################################################################

data_image0

_cell_length_a                          13.3471
_cell_length_b                          13.6108
_cell_length_c                          17.8963
_cell_angle_alpha                       90
_cell_angle_beta                        90
_cell_angle_gamma                       91.7053
_symmetry_space_group_name_H-M          'P 1'
_symmetry_int_tables_number             1
loop_
  _symmetry_equiv_pos_as_xyz
         'x, y, z' 
loop_
  _atom_site_label
  _atom_site_occupancy
  _atom_site_fract_x
  _atom_site_fract_y
  _atom_site_fract_z
  _atom_site_thermal_displace_type
  _atom_site_B_iso_or_equiv
  _atom_site_type_symbol
  _atom_site_charge
         C1        1.0000    0.63930   0.76610   0.47180   Biso      1.000     C          -0.031958           
         C2        1.0000    0.77710   0.50970   0.73500   Biso      1.000     C          -0.07681  
         C3        1.0000    0.74350   0.47220   0.80290   Biso      1.000     C          -0.075128           
         C4        1.0000    0.69580   0.37940   0.80510   Biso      1.000     C          -0.021844           
         C5        1.0000    0.68260   0.32590   0.73970   Biso      1.000     C          -0.124188           
         C6        1.0000    0.71920   0.36240   0.67210   Biso      1.000     C          -0.034884           
         C7        1.0000    0.71560   0.30070   0.60240   Biso      1.000     C          0.599106  
         C8        1.0000    0.93330   0.30250   0.88550   Biso      1.000     C          0.525515  
         C9        1.0000    0.96820   0.24710   0.81950   Biso      1.000     C          0.000462  
         C10       1.0000    0.96190   0.28720   0.74850   Biso      1.000     C          -0.123661           
         C11       1.0000    0.76660   0.45550   0.67080   Biso      1.000     C          -0.087216           
         C12       1.0000    0.98430   0.23150   0.68590   Biso      1.000     C          -0.010737           
         C13       1.0000    0.02980   0.09940   0.76620   Biso      1.000     C          -0.07911  
         C14       1.0000    0.00270   0.15310   0.82830   Biso      1.000     C          -0.083558           
         C15       1.0000    0.96770   0.27230   0.60990   Biso      1.000     C          0.549107  
         C16       1.0000    0.86000   0.60910   0.51690   Biso      1.000     C          0.577727  
         C17       1.0000    0.75670   0.63890   0.49690   Biso      1.000     C          -0.02872  
         C18       1.0000    0.73390   0.73730   0.49400   Biso      1.000     C          -0.113693           
         C19       1.0000    0.56670   0.69540   0.45230   Biso      1.000     C          -0.077853           
         C20       1.0000    0.58910   0.59700   0.45590   Biso      1.000     C          -0.088412           
         C21       1.0000    0.68260   0.56850   0.47800   Biso      1.000     C          -0.095777           
         C22       1.0000    0.01770   0.13670   0.69540   Biso      1.000     C          -0.076901           
         C23       1.0000    0.61510   0.87280   0.47120   Biso      1.000     C          0.593589  
         C24       1.0000    0.66610   0.33520   0.87940   Biso      1.000     C          0.587539  
         C25       1.0000    0.53180   0.25290   0.31950   Biso      1.000     C          0.000473  
         C26       1.0000    0.72290   0.99030   0.23500   Biso      1.000     C          -0.076807           
         C27       1.0000    0.75650   0.02780   0.30290   Biso      1.000     C          -0.07513  
         C28       1.0000    0.80420   0.12060   0.30510   Biso      1.000     C          -0.021842           
         C29       1.0000    0.81740   0.17410   0.23970   Biso      1.000     C          -0.124168           
         C30       1.0000    0.78080   0.13760   0.17210   Biso      1.000     C          -0.034889           
         C31       1.0000    0.78440   0.19930   0.10240   Biso      1.000     C          0.599111  
         C32       1.0000    0.88490   0.62720   0.97120   Biso      1.000     C          0.593595  
         C33       1.0000    0.81740   0.93150   0.97800   Biso      1.000     C          -0.095794           
         C34       1.0000    0.91090   0.90300   0.95590   Biso      1.000     C          -0.088403           
         C35       1.0000    0.56670   0.19750   0.38550   Biso      1.000     C          0.525508  
         C36       1.0000    0.93330   0.80460   0.95230   Biso      1.000     C          -0.077865           
         C37       1.0000    0.76610   0.76270   0.99400   Biso      1.000     C          -0.113697           
         C38       1.0000    0.74330   0.86110   0.99690   Biso      1.000     C          -0.028734           
         C39       1.0000    0.64000   0.89090   0.01690   Biso      1.000     C          0.577758  
         C40       1.0000    0.53230   0.22770   0.10990   Biso      1.000     C          0.549126  
         C41       1.0000    0.49730   0.34690   0.32830   Biso      1.000     C          -0.08356  
         C42       1.0000    0.47020   0.40060   0.26620   Biso      1.000     C          -0.0791   
         C43       1.0000    0.48230   0.36330   0.19540   Biso      1.000     C          -0.076896           
         C44       1.0000    0.51570   0.26850   0.18590   Biso      1.000     C          -0.010733           
         C45       1.0000    0.53810   0.21280   0.24850   Biso      1.000     C          -0.123646           
         C46       1.0000    0.86070   0.73390   0.97180   Biso      1.000     C          -0.031967           
         C47       1.0000    0.28440   0.69930   0.39760   Biso      1.000     C          0.599123  
         C48       1.0000    0.28080   0.63760   0.32790   Biso      1.000     C          -0.034891           
         C49       1.0000    0.31740   0.67410   0.26030   Biso      1.000     C          -0.124191           
         C50       1.0000    0.24350   0.97220   0.69710   Biso      1.000     C          -0.075127           
         C51       1.0000    0.27710   0.00970   0.76500   Biso      1.000     C          -0.076809           
         C52       1.0000    0.26660   0.95550   0.82920   Biso      1.000     C          -0.08721  
         C53       1.0000    0.16610   0.83520   0.62060   Biso      1.000     C          0.587525  
         C54       1.0000    0.06670   0.69750   0.11450   Biso      1.000     C          0.525528  
         C55       1.0000    0.03180   0.75290   0.18050   Biso      1.000     C          0.000461  
         C56       1.0000    0.03810   0.71280   0.25150   Biso      1.000     C          -0.123677           
         C57       1.0000    0.01570   0.76850   0.31410   Biso      1.000     C          -0.010733           
         C58       1.0000    0.98230   0.86330   0.30460   Biso      1.000     C          -0.076917           
         C59       1.0000    0.19580   0.87940   0.69490   Biso      1.000     C          -0.021832           
         C60       1.0000    0.97020   0.90060   0.23380   Biso      1.000     C          -0.079097           
         C61       1.0000    0.03230   0.72770   0.39010   Biso      1.000     C          0.549112  
         C62       1.0000    0.14000   0.39090   0.48310   Biso      1.000     C          0.577775  
         C63       1.0000    0.24330   0.36110   0.50310   Biso      1.000     C          -0.028722           
         C64       1.0000    0.26610   0.26270   0.50600   Biso      1.000     C          -0.113697           
         C65       1.0000    0.36070   0.23390   0.52820   Biso      1.000     C          -0.031964           
         C66       1.0000    0.43330   0.30460   0.54770   Biso      1.000     C          -0.077854           
         C67       1.0000    0.41090   0.40300   0.54410   Biso      1.000     C          -0.088403           
         C68       1.0000    0.31740   0.43150   0.52200   Biso      1.000     C          -0.095788           
         C69       1.0000    0.38490   0.12720   0.52880   Biso      1.000     C          0.593574  
         C70       1.0000    0.99730   0.84690   0.17170   Biso      1.000     C          -0.083563           
         C71       1.0000    0.18260   0.82590   0.76030   Biso      1.000     C          -0.124183           
         C72       1.0000    0.21920   0.86240   0.82790   Biso      1.000     C          -0.034887           
         C73       1.0000    0.21560   0.80070   0.89760   Biso      1.000     C          0.599101  
         C74       1.0000    0.30420   0.62060   0.19490   Biso      1.000     C          -0.021837           
         C75       1.0000    0.25650   0.52780   0.19710   Biso      1.000     C          -0.075139           
         C76       1.0000    0.22290   0.49030   0.26500   Biso      1.000     C          -0.076811           
         C77       1.0000    0.23340   0.54450   0.32920   Biso      1.000     C          -0.087206           
         C78       1.0000    0.33390   0.66480   0.12060   Biso      1.000     C          0.587526  
         C79       1.0000    0.43330   0.80250   0.61450   Biso      1.000     C          0.525511  
         C80       1.0000    0.46820   0.74710   0.68050   Biso      1.000     C          0.000466  
         C81       1.0000    0.46190   0.78720   0.75150   Biso      1.000     C          -0.123654           
         C82       1.0000    0.48430   0.73150   0.81410   Biso      1.000     C          -0.010736           
         C83       1.0000    0.51770   0.63670   0.80460   Biso      1.000     C          -0.07691  
         C84       1.0000    0.52980   0.59940   0.73380   Biso      1.000     C          -0.079101           
         C85       1.0000    0.50270   0.65310   0.67170   Biso      1.000     C          -0.083564           
         C86       1.0000    0.46770   0.77230   0.89010   Biso      1.000     C          0.549109  
         C87       1.0000    0.36000   0.10910   0.98310   Biso      1.000     C          0.577755  
         C88       1.0000    0.25670   0.13890   0.00310   Biso      1.000     C          -0.028735           
         C89       1.0000    0.23390   0.23730   0.00600   Biso      1.000     C          -0.113689           
         C90       1.0000    0.13930   0.26610   0.02820   Biso      1.000     C          -0.031958           
         C91       1.0000    0.06670   0.19540   0.04770   Biso      1.000     C          -0.077847           
         C92       1.0000    0.08910   0.09700   0.04410   Biso      1.000     C          -0.088402           
         C93       1.0000    0.18260   0.06850   0.02200   Biso      1.000     C          -0.095784           
         C94       1.0000    0.11510   0.37280   0.02880   Biso      1.000     C          0.593573  
         C95       1.0000    0.73340   0.04450   0.17080   Biso      1.000     C          -0.087216           
         C96       1.0000    0.83390   0.16480   0.37940   Biso      1.000     C          0.587544  
         Eu1       1.0000    0.59445   0.14266   0.97034   Biso      1.000     Eu          1.327899  
         Eu2       1.0000    0.40555   0.85734   0.02966   Biso      1.000     Eu          1.327881  
         Eu3       1.0000    0.85201   0.40242   0.01257   Biso      1.000     Eu          1.332471  
         Eu4       1.0000    0.90555   0.35734   0.47034   Biso      1.000     Eu          1.327655  
         Eu5       1.0000    0.64799   0.09758   0.51257   Biso      1.000     Eu          1.332649  
         Eu6       1.0000    0.14799   0.59758   0.98743   Biso      1.000     Eu          1.332596  
         Eu7       1.0000    0.09445   0.64266   0.52966   Biso      1.000     Eu          1.327889  
         Eu8       1.0000    0.35201   0.90242   0.48743   Biso      1.000     Eu          1.33265   
         H1        1.0000    0.51500   0.99200   0.86400   Biso      1.000     H          0.377295  
         H2        1.0000    0.85100   0.23490   0.24100   Biso      1.000     H          0.133708  
         H3        1.0000    0.74730   0.99150   0.34650   Biso      1.000     H          0.120277  
         H4        1.0000    0.69300   0.92780   0.23310   Biso      1.000     H          0.122805  
         H5        1.0000    0.05650   0.03760   0.77230   Biso      1.000     H          0.10789   
         H6        1.0000    0.94270   0.35190   0.74270   Biso      1.000     H          0.12235   
         H7        1.0000    0.03210   0.09850   0.65390   Biso      1.000     H          0.123664  
         H8        1.0000    0.64900   0.39200   0.07700   Biso      1.000     H          0.36276   
         H9        1.0000    0.00760   0.12590   0.87580   Biso      1.000     H          0.11234   
         H10       1.0000    0.70890   0.01920   0.12590   Biso      1.000     H          0.110788  
         H11       1.0000    0.80330   0.99790   0.98040   Biso      1.000     H          0.114308  
         H12       1.0000    0.49240   0.37410   0.37580   Biso      1.000     H          0.112349  
         H13       1.0000    0.99650   0.78580   0.93710   Biso      1.000     H          0.116202  
         H14       1.0000    0.71770   0.71530   0.00710   Biso      1.000     H          0.136063  
         H15       1.0000    0.78230   0.78470   0.50710   Biso      1.000     H          0.13607   
         H16       1.0000    0.44350   0.46240   0.27230   Biso      1.000     H          0.107905  
         H17       1.0000    0.46790   0.40150   0.15390   Biso      1.000     H          0.123677  
         H18       1.0000    0.55730   0.14810   0.24270   Biso      1.000     H          0.122353  
         H19       1.0000    0.79110   0.48080   0.62590   Biso      1.000     H          0.110782  
         H20       1.0000    0.80700   0.57220   0.73310   Biso      1.000     H          0.122816  
         H21       1.0000    0.75270   0.50850   0.84650   Biso      1.000     H          0.120271  
         H22       1.0000    0.64900   0.26510   0.74100   Biso      1.000     H          0.133704  
         H23       1.0000    0.01500   0.49200   0.63600   Biso      1.000     H          0.377294  
         H24       1.0000    0.95950   0.95040   0.94310   Biso      1.000     H          0.108687  
         H25       1.0000    0.50350   0.71420   0.43710   Biso      1.000     H          0.116208  
         H26       1.0000    0.14900   0.89200   0.42300   Biso      1.000     H          0.362765  
         H27       1.0000    0.69670   0.50210   0.48040   Biso      1.000     H          0.114317  
         H28       1.0000    0.54050   0.54960   0.44310   Biso      1.000     H          0.108694  
         H29       1.0000    0.30330   0.49790   0.51960   Biso      1.000     H          0.11431   
         H30       1.0000    0.49650   0.28580   0.56290   Biso      1.000     H          0.116202  
         H31       1.0000    0.21770   0.21530   0.49290   Biso      1.000     H          0.136064  
         H32       1.0000    0.99240   0.87410   0.12420   Biso      1.000     H          0.112345  
         H33       1.0000    0.94350   0.96240   0.22770   Biso      1.000     H          0.107899  
         H34       1.0000    0.96790   0.90150   0.34610   Biso      1.000     H          0.123675  
         H35       1.0000    0.05730   0.64810   0.25730   Biso      1.000     H          0.122355  
         H36       1.0000    0.29110   0.98080   0.87410   Biso      1.000     H          0.110783  
         H37       1.0000    0.30700   0.07220   0.76690   Biso      1.000     H          0.122801  
         H38       1.0000    0.25270   0.00850   0.65350   Biso      1.000     H          0.120266  
         H39       1.0000    0.14900   0.76510   0.75900   Biso      1.000     H          0.133705  
         H40       1.0000    0.48500   0.00800   0.13600   Biso      1.000     H          0.377314  
         H41       1.0000    0.35100   0.60800   0.92300   Biso      1.000     H          0.362756  
         H42       1.0000    0.45950   0.45040   0.55690   Biso      1.000     H          0.10869   
         H43       1.0000    0.04050   0.04960   0.05690   Biso      1.000     H          0.108694  
         H44       1.0000    0.19670   0.00210   0.01960   Biso      1.000     H          0.114309  
         H45       1.0000    0.98500   0.50800   0.36400   Biso      1.000     H          0.37721   
         H46       1.0000    0.35100   0.73490   0.25900   Biso      1.000     H          0.1337    
         H47       1.0000    0.24730   0.49150   0.15350   Biso      1.000     H          0.120271  
         H48       1.0000    0.19300   0.42780   0.26690   Biso      1.000     H          0.122831  
         H49       1.0000    0.20890   0.51920   0.37410   Biso      1.000     H          0.110779  
         H50       1.0000    0.85100   0.10800   0.57700   Biso      1.000     H          0.362761  
         H51       1.0000    0.53210   0.59850   0.84610   Biso      1.000     H          0.123667  
         H52       1.0000    0.55650   0.53760   0.72770   Biso      1.000     H          0.107894  
         H53       1.0000    0.50760   0.62590   0.62420   Biso      1.000     H          0.112346  
         H54       1.0000    0.28230   0.28470   0.99290   Biso      1.000     H          0.136064  
         H55       1.0000    0.00350   0.21420   0.06290   Biso      1.000     H          0.11621   
         H56       1.0000    0.44270   0.85190   0.75730   Biso      1.000     H          0.12235   
         O1        1.0000    0.02580   0.39760   0.03390   Biso      1.000     O          -0.540897           
         O2        1.0000    0.18680   0.43440   0.02330   Biso      1.000     O          -0.495509           
         O3        1.0000    0.41980   0.17390   0.95800   Biso      1.000     O          -0.474967           
         O4        1.0000    0.38510   0.02190   0.99410   Biso      1.000     O          -0.544881           
         O5        1.0000    0.47200   0.86450   0.89989   Biso      1.000     O          -0.537656           
         O6        1.0000    0.43450   0.89610   0.61442   Biso      1.000     O          -0.463605           
         O7        1.0000    0.44610   0.71510   0.94367   Biso      1.000     O          -0.507854           
         O8        1.0000    0.40400   0.72890   0.11985   Biso      1.000     O          -0.484028           
         O9        1.0000    0.30410   0.56180   0.91880   Biso      1.000     O          -0.441248           
         O10       1.0000    0.33540   0.77840   0.39545   Biso      1.000     O          -0.521106           
         O11       1.0000    0.39830   0.75450   0.55943   Biso      1.000     O          -0.474207           
         O12       1.0000    0.28630   0.63820   0.06383   Biso      1.000     O          -0.513713           
         O13       1.0000    0.05390   0.78490   0.44367   Biso      1.000     O          -0.507886           
         O14       1.0000    0.26330   0.83050   0.95420   Biso      1.000     O          -0.545127           
         O15       1.0000    0.16460   0.72160   0.89545   Biso      1.000     O          -0.521069           
         O16       1.0000    0.21370   0.86180   0.56383   Biso      1.000     O          -0.513692           
         O17       1.0000    0.09600   0.77110   0.61985   Biso      1.000     O          -0.484032           
         O18       1.0000    0.02800   0.63550   0.39989   Biso      1.000     O          -0.537598           
         O19       1.0000    0.06550   0.60390   0.11442   Biso      1.000     O          -0.463533           
         O20       1.0000    0.10170   0.74550   0.05943   Biso      1.000     O          -0.474214           
         O21       1.0000    0.11490   0.47810   0.49410   Biso      1.000     O          -0.544856           
         O22       1.0000    0.08020   0.32610   0.45800   Biso      1.000     O          -0.474948           
         O23       1.0000    0.31320   0.06560   0.52330   Biso      1.000     O          -0.495509           
         O24       1.0000    0.23670   0.66950   0.45420   Biso      1.000     O          -0.545173           
         O25       1.0000    0.47420   0.10240   0.53390   Biso      1.000     O          -0.54092  
         O26       1.0000    0.45140   0.95300   0.14270   Biso      1.000     O          -0.487384           
         O27       1.0000    0.95140   0.45300   0.35730   Biso      1.000     O          -0.487463           
         O28       1.0000    0.69590   0.43820   0.08120   Biso      1.000     O          -0.441211           
         O29       1.0000    0.52580   0.89760   0.46610   Biso      1.000     O          -0.540945           
         O30       1.0000    0.19590   0.93820   0.41880   Biso      1.000     O          -0.441289           
         O31       1.0000    0.76330   0.33050   0.54580   Biso      1.000     O          -0.545123           
         O32       1.0000    0.66460   0.22160   0.60455   Biso      1.000     O          -0.521097           
         O33       1.0000    0.71370   0.36180   0.93617   Biso      1.000     O          -0.513707           
         O34       1.0000    0.59600   0.27110   0.88015   Biso      1.000     O          -0.484021           
         O35       1.0000    0.55390   0.28490   0.05633   Biso      1.000     O          -0.507894           
         O36       1.0000    0.52800   0.13550   0.10011   Biso      1.000     O          -0.537694           
         O37       1.0000    0.56550   0.10390   0.38558   Biso      1.000     O          -0.463589           
         O38       1.0000    0.60170   0.24550   0.44057   Biso      1.000     O          -0.474171           
         O39       1.0000    0.61490   0.97810   0.00590   Biso      1.000     O          -0.544878           
         O40       1.0000    0.58020   0.82610   0.04200   Biso      1.000     O          -0.47497  
         O41       1.0000    0.81320   0.56560   0.97670   Biso      1.000     O          -0.495506           
         O42       1.0000    0.97420   0.60240   0.96610   Biso      1.000     O          -0.540919           
         O43       1.0000    0.54860   0.04700   0.85730   Biso      1.000     O          -0.487422           
         O44       1.0000    0.73670   0.16950   0.04580   Biso      1.000     O          -0.545136           
         O45       1.0000    0.83540   0.27840   0.10455   Biso      1.000     O          -0.521054           
         O46       1.0000    0.78630   0.13820   0.43617   Biso      1.000     O          -0.513718           
         O47       1.0000    0.90400   0.22890   0.38015   Biso      1.000     O          -0.483996           
         O48       1.0000    0.94610   0.21510   0.55633   Biso      1.000     O          -0.507905           
         O49       1.0000    0.97200   0.36450   0.60011   Biso      1.000     O          -0.537652           
         O50       1.0000    0.93450   0.39610   0.88558   Biso      1.000     O          -0.463594           
         O51       1.0000    0.89830   0.25450   0.94057   Biso      1.000     O          -0.474226           
         O52       1.0000    0.88510   0.52190   0.50590   Biso      1.000     O          -0.544766           
         O53       1.0000    0.91980   0.67390   0.54200   Biso      1.000     O          -0.474948           
         O54       1.0000    0.68680   0.93440   0.47670   Biso      1.000     O          -0.495554           
         O55       1.0000    0.80410   0.06180   0.58120   Biso      1.000     O          -0.441261           
         O56       1.0000    0.04860   0.54700   0.64270   Biso      1.000     O          -0.487442 