
##########################################################################
#               Crystallographic Information Format file
#               Produced by PyCifRW module
#
#  This is a CIF file.  CIF has been adopted by the International
#  Union of Crystallography as the standard for data archiving and
#  transmission.
#
#  For information on this file format, follow the CIF links at
#  http://www.iucr.org
##########################################################################

data_image0

_cell_length_a                          10.5671
_cell_length_b                          10.5671
_cell_length_c                          10.9194
_cell_angle_alpha                       78.7708
_cell_angle_beta                        62.4963
_cell_angle_gamma                       108.758
_symmetry_space_group_name_H-M          'P 1'
_symmetry_int_tables_number             1
loop_
  _symmetry_equiv_pos_as_xyz
         'x, y, z' 
loop_
  _atom_site_label
  _atom_site_occupancy
  _atom_site_fract_x
  _atom_site_fract_y
  _atom_site_fract_z
  _atom_site_thermal_displace_type
  _atom_site_B_iso_or_equiv
  _atom_site_type_symbol
  _atom_site_charge
         C1        1.0000    0.01940   0.07200   0.33160   Biso      1.000     C          0.74133   
         C2        1.0000    0.37510   0.62510   0.25000   Biso      1.000     C          -0.484517           
         C3        1.0000    0.62490   0.37490   0.75000   Biso      1.000     C          -0.484517           
         C4        1.0000    0.50020   0.77600   0.12520   Biso      1.000     C          0.734578  
         C5        1.0000    0.31450   0.19530   0.25760   Biso      1.000     C          0.808415  
         C6        1.0000    0.16820   0.20920   0.27780   Biso      1.000     C          -0.5419   
         C7        1.0000    0.40120   0.62540   0.37480   Biso      1.000     C          0.735998  
         C8        1.0000    0.95290   0.57210   0.24240   Biso      1.000     C          0.808699  
         C9        1.0000    0.98700   0.44600   0.22220   Biso      1.000     C          -0.54201  
         C10       1.0000    0.90360   0.35100   0.16840   Biso      1.000     C          0.73834   
         C11       1.0000    0.49980   0.22400   0.87480   Biso      1.000     C          0.734578  
         C12       1.0000    0.68550   0.80470   0.74240   Biso      1.000     C          0.808415  
         C13       1.0000    0.98060   0.92800   0.66840   Biso      1.000     C          0.74133   
         C14       1.0000    0.59880   0.37460   0.62520   Biso      1.000     C          0.735998  
         C15       1.0000    0.04710   0.42790   0.75760   Biso      1.000     C          0.808699  
         C16       1.0000    0.01300   0.55400   0.77780   Biso      1.000     C          -0.54201  
         C17       1.0000    0.83180   0.79080   0.72220   Biso      1.000     C          -0.5419   
         C18       1.0000    0.09640   0.64900   0.83160   Biso      1.000     C          0.738341  
         H1        1.0000    0.39190   0.54970   0.21700   Biso      1.000     H          0.181892  
         H2        1.0000    0.89700   0.51370   0.84910   Biso      1.000     H          0.164926  
         H3        1.0000    0.73330   0.39110   0.71700   Biso      1.000     H          0.182698  
         H4        1.0000    0.86280   0.74610   0.65090   Biso      1.000     H          0.16327   
         H5        1.0000    0.79830   0.72310   0.81840   Biso      1.000     H          0.188121  
         H6        1.0000    0.60810   0.45030   0.78300   Biso      1.000     H          0.181892  
         H7        1.0000    0.04150   0.61670   0.68160   Biso      1.000     H          0.187761  
         H8        1.0000    0.95850   0.38330   0.31840   Biso      1.000     H          0.187761  
         H9        1.0000    0.26670   0.60890   0.28300   Biso      1.000     H          0.182698  
         H10       1.0000    0.13720   0.25390   0.34910   Biso      1.000     H          0.16327   
         H11       1.0000    0.20170   0.27690   0.18160   Biso      1.000     H          0.188121  
         H12       1.0000    0.10300   0.48630   0.15090   Biso      1.000     H          0.164926  
         O1        1.0000    0.54250   0.13140   0.90810   Biso      1.000     O          -0.795188           
         O2        1.0000    0.75390   0.30890   0.22560   Biso      1.000     O          -0.783174           
         O3        1.0000    0.98480   0.31250   0.07210   Biso      1.000     O          -0.57631  
         O4        1.0000    0.81350   0.55740   0.29150   Biso      1.000     O          -0.692154           
         O5        1.0000    0.06780   0.68510   0.21390   Biso      1.000     O          -0.773266           
         O6        1.0000    0.39900   0.28170   0.28610   Biso      1.000     O          -0.772844           
         O7        1.0000    0.46050   0.54940   0.40810   Biso      1.000     O          -0.795047           
         O8        1.0000    0.34890   0.10500   0.20850   Biso      1.000     O          -0.691811           
         O9        1.0000    0.88460   0.05690   0.42790   Biso      1.000     O          -0.577999           
         O10       1.0000    0.03450   0.97950   0.27440   Biso      1.000     O          -0.783995           
         O11       1.0000    0.35220   0.19120   0.94160   Biso      1.000     O          -0.618036           
         O12       1.0000    0.36720   0.70620   0.44160   Biso      1.000     O          -0.620294           
         O13       1.0000    0.60100   0.71830   0.71390   Biso      1.000     O          -0.772844           
         O14       1.0000    0.45750   0.86860   0.09190   Biso      1.000     O          -0.795188           
         O15       1.0000    0.11540   0.94310   0.57210   Biso      1.000     O          -0.577999           
         O16       1.0000    0.96550   0.02050   0.72560   Biso      1.000     O          -0.783995           
         O17       1.0000    0.53950   0.45060   0.59190   Biso      1.000     O          -0.795047           
         O18       1.0000    0.63280   0.29380   0.55840   Biso      1.000     O          -0.620294           
         O19       1.0000    0.93220   0.31490   0.78610   Biso      1.000     O          -0.773266           
         O20       1.0000    0.18650   0.44260   0.70850   Biso      1.000     O          -0.692154           
         O21       1.0000    0.01520   0.68750   0.92790   Biso      1.000     O          -0.57631  
         O22       1.0000    0.24610   0.69110   0.77440   Biso      1.000     O          -0.783174           
         O23       1.0000    0.64780   0.80880   0.05840   Biso      1.000     O          -0.618036           
         O24       1.0000    0.65110   0.89500   0.79150   Biso      1.000     O          -0.691811           
         Sm1       1.0000    0.24467   0.93131   0.12016   Biso      1.000     Sm          2.206125  
         Sm2       1.0000    0.55147   0.36483   0.37984   Biso      1.000     Sm          2.206393  
         Sm3       1.0000    0.75533   0.06869   0.87984   Biso      1.000     Sm          2.206124  
         Sm4       1.0000    0.44853   0.63517   0.62016   Biso      1.000     Sm          2.206392 