
##########################################################################
#               Crystallographic Information Format file
#               Produced by PyCifRW module
#
#  This is a CIF file.  CIF has been adopted by the International
#  Union of Crystallography as the standard for data archiving and
#  transmission.
#
#  For information on this file format, follow the CIF links at
#  http://www.iucr.org
##########################################################################

data_image0

_cell_length_a                          10.0616
_cell_length_b                          12.8746
_cell_length_c                          12.922
_cell_angle_alpha                       71.2174
_cell_angle_beta                        67.0877
_cell_angle_gamma                       66.9985
_symmetry_space_group_name_H-M          'P 1'
_symmetry_int_tables_number             1
loop_
  _symmetry_equiv_pos_as_xyz
         'x, y, z' 
loop_
  _atom_site_label
  _atom_site_occupancy
  _atom_site_fract_x
  _atom_site_fract_y
  _atom_site_fract_z
  _atom_site_thermal_displace_type
  _atom_site_B_iso_or_equiv
  _atom_site_type_symbol
  _atom_site_charge
         C1        1.0000    0.75180   0.59560   0.80500   Biso      1.000     C          0.111265  
         C2        1.0000    0.67200   0.53120   0.91940   Biso      1.000     C          -0.39621  
         C3        1.0000    0.62440   0.66220   0.74680   Biso      1.000     C          0.602865  
         C4        1.0000    0.54320   0.65140   0.39580   Biso      1.000     C          -0.145803           
         C5        1.0000    0.48770   0.73560   0.45860   Biso      1.000     C          0.083811  
         C6        1.0000    0.72500   0.72910   0.43770   Biso      1.000     C          0.097775  
         C7        1.0000    0.78880   0.64820   0.37020   Biso      1.000     C          -0.160873           
         C8        1.0000    0.69690   0.60730   0.34910   Biso      1.000     C          0.023245  
         C9        1.0000    0.76880   0.45270   0.99790   Biso      1.000     C          0.677516  
         C10       1.0000    0.76000   0.51460   0.27820   Biso      1.000     C          0.5954550000000001  
         C11       1.0000    0.12260   0.96880   0.58060   Biso      1.000     C          -0.40113699999999997          
         C12       1.0000    0.15240   0.90440   0.69500   Biso      1.000     C          0.115321  
         C13       1.0000    0.03340   0.83780   0.75320   Biso      1.000     C          0.593487  
         C14       1.0000    0.59040   0.84860   0.10420   Biso      1.000     C          -0.147783           
         C15       1.0000    0.68190   0.76440   0.04140   Biso      1.000     C          0.079814  
         C16       1.0000    0.55280   0.98540   0.22180   Biso      1.000     C          0.594813  
         C17       1.0000    0.65330   0.89270   0.15090   Biso      1.000     C          0.023859  
         C18       1.0000    0.21940   0.04730   0.50210   Biso      1.000     C          0.683453  
         C19       1.0000    0.44720   0.01460   0.77820   Biso      1.000     C          0.594564  
         C20       1.0000    0.34670   0.10730   0.84910   Biso      1.000     C          0.024384  
         C21       1.0000    0.19280   0.14820   0.87020   Biso      1.000     C          -0.158172           
         C22       1.0000    0.23120   0.54730   0.00210   Biso      1.000     C          0.675416  
         C23       1.0000    0.32800   0.46880   0.08060   Biso      1.000     C          -0.396305           
         C24       1.0000    0.24820   0.40440   0.19500   Biso      1.000     C          0.11241500000000001           
         C25       1.0000    0.37560   0.33780   0.25320   Biso      1.000     C          0.602527  
         C26       1.0000    0.45680   0.34860   0.60420   Biso      1.000     C          -0.145032           
         C27       1.0000    0.51230   0.26440   0.54140   Biso      1.000     C          0.084457  
         C28       1.0000    0.27500   0.27090   0.56230   Biso      1.000     C          0.09893300000000001           
         C29       1.0000    0.21120   0.35180   0.62980   Biso      1.000     C          -0.161162           
         C30       1.0000    0.30310   0.39270   0.65090   Biso      1.000     C          0.024577  
         C31       1.0000    0.24000   0.48540   0.72180   Biso      1.000     C          0.591065  
         C32       1.0000    0.78060   0.95270   0.49790   Biso      1.000     C          0.682932  
         C33       1.0000    0.87740   0.03120   0.41940   Biso      1.000     C          -0.401192           
         C34       1.0000    0.84760   0.09560   0.30500   Biso      1.000     C          0.11526099999999999           
         C35       1.0000    0.96660   0.16220   0.24680   Biso      1.000     C          0.598532  
         C36       1.0000    0.40960   0.15140   0.89580   Biso      1.000     C          -0.148788           
         C37       1.0000    0.31810   0.23560   0.95860   Biso      1.000     C          0.082804  
         C38       1.0000    0.10820   0.22910   0.93770   Biso      1.000     C          0.091293  
         C39       1.0000    0.80720   0.85180   0.12980   Biso      1.000     C          -0.15701099999999998          
         C40       1.0000    0.89180   0.77090   0.06230   Biso      1.000     C          0.087555  
         Co1       1.0000    0.96789   0.61341   0.89699   Biso      1.000     Co          0.8107810000000001  
         Co2       1.0000    0.47829   0.88659   0.60301   Biso      1.000     Co          0.949731  
         Co3       1.0000    0.25042   0.16668   0.26298   Biso      1.000     Co          1.0063739999999999  
         Co4       1.0000    0.68008   0.33332   0.23702   Biso      1.000     Co          1.006999  
         Co5       1.0000    0.03211   0.38659   0.10301   Biso      1.000     Co          0.951001  
         Co6       1.0000    0.74958   0.83332   0.73702   Biso      1.000     Co          0.9946709999999999  
         Co7       1.0000    0.52171   0.11341   0.39699   Biso      1.000     Co          0.953242  
         Co8       1.0000    0.31992   0.66668   0.76298   Biso      1.000     Co          1.00048   
         H1        1.0000    0.89570   0.62100   0.33840   Biso      1.000     H          0.126384  
         H2        1.0000    0.13770   0.91120   0.53820   Biso      1.000     H          0.1578    
         H3        1.0000    0.01480   0.01610   0.59650   Biso      1.000     H          0.155367  
         H4        1.0000    0.13600   0.95920   0.74180   Biso      1.000     H          0.086539  
         H5        1.0000    0.85510   0.87900   0.16160   Biso      1.000     H          0.127571  
         H6        1.0000    0.63560   0.73180   0.01360   Biso      1.000     H          0.091864  
         H7        1.0000    0.99860   0.74560   0.04680   Biso      1.000     H          0.092639  
         H8        1.0000    0.79100   0.75440   0.45320   Biso      1.000     H          0.088571  
         H9        1.0000    0.41290   0.41120   0.03820   Biso      1.000     H          0.158579  
         H10       1.0000    0.48440   0.87610   0.11530   Biso      1.000     H          0.137304  
         H11       1.0000    0.38100   0.76820   0.48640   Biso      1.000     H          0.08857000000000001           
         H12       1.0000    0.37260   0.51610   0.09650   Biso      1.000     H          0.15303699999999998           
         H13       1.0000    0.83700   0.54080   0.75820   Biso      1.000     H          0.086247  
         H14       1.0000    0.16300   0.45920   0.24180   Biso      1.000     H          0.086876  
         H15       1.0000    0.52420   0.37610   0.61530   Biso      1.000     H          0.13536600000000001           
         H16       1.0000    0.61900   0.23180   0.51360   Biso      1.000     H          0.08879400000000001           
         H17       1.0000    0.20900   0.24560   0.54680   Biso      1.000     H          0.088795  
         H18       1.0000    0.10430   0.37900   0.66160   Biso      1.000     H          0.126702  
         H19       1.0000    0.86230   0.08880   0.46180   Biso      1.000     H          0.15770699999999999           
         H20       1.0000    0.98520   0.98390   0.40350   Biso      1.000     H          0.155343  
         H21       1.0000    0.86400   0.04080   0.25820   Biso      1.000     H          0.08694600000000001           
         H22       1.0000    0.51560   0.12390   0.88470   Biso      1.000     H          0.136265  
         H23       1.0000    0.36440   0.26820   0.98640   Biso      1.000     H          0.089277  
         H24       1.0000    0.00140   0.25440   0.95320   Biso      1.000     H          0.09038099999999999           
         H25       1.0000    0.47580   0.62390   0.38470   Biso      1.000     H          0.135097  
         H26       1.0000    0.14490   0.12100   0.83840   Biso      1.000     H          0.12632000000000002           
         H27       1.0000    0.58710   0.58880   0.96180   Biso      1.000     H          0.15770599999999999           
         H28       1.0000    0.62740   0.48390   0.90350   Biso      1.000     H          0.151685  
         N1        1.0000    0.42370   0.22560   0.51720   Biso      1.000     N          -0.24409299999999998          
         N2        1.0000    0.16650   0.27440   0.98280   Biso      1.000     N          -0.24078000000000002          
         N3        1.0000    0.83350   0.72560   0.01720   Biso      1.000     N          -0.201068           
         N4        1.0000    0.57630   0.77440   0.48280   Biso      1.000     N          -0.244354           
         O1        1.0000    0.38934   0.99382   0.72050   Biso      1.000     O          -0.543872           
         O2        1.0000    0.44840   0.39140   0.26380   Biso      1.000     O          -0.551345           
         O3        1.0000    0.39061   0.23218   0.29400   Biso      1.000     O          -0.605085           
         O4        1.0000    0.33426   0.53068   0.71520   Biso      1.000     O          -0.565973           
         O5        1.0000    0.19673   0.32434   0.17920   Biso      1.000     O          -0.62033  
         O6        1.0000    0.10366   0.50618   0.77950   Biso      1.000     O          -0.510418           
         O7        1.0000    0.84240   0.87630   0.56730   Biso      1.000     O          -0.567736           
         O8        1.0000    0.64307   0.97636   0.50190   Biso      1.000     O          -0.590581           
         O9        1.0000    0.70027   0.17566   0.32080   Biso      1.000     O          -0.6208359999999999           
         O10       1.0000    0.10360   0.10860   0.23620   Biso      1.000     O          -0.548702           
         O11       1.0000    0.91679   0.26782   0.20600   Biso      1.000     O          -0.604023           
         O12       1.0000    0.58014   0.96932   0.78480   Biso      1.000     O          -0.5678449999999999           
         O13       1.0000    0.71400   0.37630   0.06730   Biso      1.000     O          -0.570199           
         O14       1.0000    0.89640   0.89140   0.76380   Biso      1.000     O          -0.546196           
         O15       1.0000    0.80327   0.67566   0.82080   Biso      1.000     O          -0.583138           
         O16       1.0000    0.55160   0.60860   0.73620   Biso      1.000     O          -0.546445           
         O17       1.0000    0.60939   0.76782   0.70600   Biso      1.000     O          -0.601101           
         O18       1.0000    0.66574   0.46932   0.28480   Biso      1.000     O          -0.568971           
         O19       1.0000    0.89634   0.49382   0.22050   Biso      1.000     O          -0.544197           
         O20       1.0000    0.15760   0.12370   0.43270   Biso      1.000     O          -0.569101           
         O21       1.0000    0.35693   0.02364   0.49810   Biso      1.000     O          -0.590377           
         O22       1.0000    0.29973   0.82434   0.67920   Biso      1.000     O          -0.619815           
         O23       1.0000    0.08321   0.73218   0.79400   Biso      1.000     O          -0.586966           
         O24       1.0000    0.41986   0.03068   0.21520   Biso      1.000     O          -0.568238           
         O25       1.0000    0.61066   0.00618   0.27950   Biso      1.000     O          -0.543967           
         O26       1.0000    0.12133   0.52364   0.99810   Biso      1.000     O          -0.559559           
         O27       1.0000    0.87867   0.47636   0.00190   Biso      1.000     O          -0.576022           
         O28       1.0000    0.28600   0.62370   0.93270   Biso      1.000     O          -0.565609 