
##########################################################################
#               Crystallographic Information Format file
#               Produced by PyCifRW module
#
#  This is a CIF file.  CIF has been adopted by the International
#  Union of Crystallography as the standard for data archiving and
#  transmission.
#
#  For information on this file format, follow the CIF links at
#  http://www.iucr.org
##########################################################################

data_image0

_cell_length_a                          10.0816
_cell_length_b                          12.8086
_cell_length_c                          12.9996
_cell_angle_alpha                       70.9476
_cell_angle_beta                        67.1845
_cell_angle_gamma                       66.8246
_symmetry_space_group_name_H-M          'P 1'
_symmetry_int_tables_number             1
loop_
  _symmetry_equiv_pos_as_xyz
         'x, y, z' 
loop_
  _atom_site_label
  _atom_site_occupancy
  _atom_site_fract_x
  _atom_site_fract_y
  _atom_site_fract_z
  _atom_site_thermal_displace_type
  _atom_site_B_iso_or_equiv
  _atom_site_type_symbol
  _atom_site_charge
         C1        1.0000    0.74740   0.59670   0.80670   Biso      1.000     C          0.112414  
         C2        1.0000    0.67370   0.53070   0.92030   Biso      1.000     C          -0.405259           
         C3        1.0000    0.62180   0.66040   0.75000   Biso      1.000     C          0.613765  
         C4        1.0000    0.40880   0.15290   0.89070   Biso      1.000     C          -0.149156           
         C5        1.0000    0.31700   0.23630   0.95470   Biso      1.000     C          0.082412  
         C6        1.0000    0.10690   0.22130   0.94390   Biso      1.000     C          0.091162  
         C7        1.0000    0.19040   0.13920   0.87720   Biso      1.000     C          -0.158204           
         C8        1.0000    0.34560   0.10340   0.85020   Biso      1.000     C          0.024557  
         C9        1.0000    0.77110   0.45180   0.99840   Biso      1.000     C          0.684145  
         C10       1.0000    0.44540   0.01260   0.77860   Biso      1.000     C          0.596487  
         C11       1.0000    0.12470   0.96930   0.57970   Biso      1.000     C          -0.410768           
         C12       1.0000    0.15080   0.90330   0.69330   Biso      1.000     C          0.114662  
         C13       1.0000    0.03220   0.83960   0.75000   Biso      1.000     C          0.611007  
         C14       1.0000    0.45240   0.34710   0.60930   Biso      1.000     C          -0.152015           
         C15       1.0000    0.50800   0.26370   0.54530   Biso      1.000     C          0.084348  
         C16       1.0000    0.23660   0.48740   0.72140   Biso      1.000     C          0.601916  
         C17       1.0000    0.29920   0.39660   0.64980   Biso      1.000     C          0.024055  
         C18       1.0000    0.22130   0.04820   0.50160   Biso      1.000     C          0.687039  
         C19       1.0000    0.76340   0.51260   0.27860   Biso      1.000     C          0.602022  
         C20       1.0000    0.70080   0.60340   0.35020   Biso      1.000     C          0.024009  
         C21       1.0000    0.79320   0.63920   0.37720   Biso      1.000     C          -0.163235           
         C22       1.0000    0.22890   0.54820   0.00160   Biso      1.000     C          0.684094  
         C23       1.0000    0.32630   0.46930   0.07970   Biso      1.000     C          -0.405232           
         C24       1.0000    0.25260   0.40330   0.19330   Biso      1.000     C          0.112404  
         C25       1.0000    0.37820   0.33960   0.25000   Biso      1.000     C          0.613797  
         C26       1.0000    0.59120   0.84710   0.10930   Biso      1.000     C          -0.14917  
         C27       1.0000    0.68300   0.76370   0.04530   Biso      1.000     C          0.082377  
         C28       1.0000    0.89310   0.77870   0.05610   Biso      1.000     C          0.091135  
         C29       1.0000    0.80960   0.86080   0.12280   Biso      1.000     C          -0.158222           
         C30       1.0000    0.65440   0.89660   0.14980   Biso      1.000     C          0.024474  
         C31       1.0000    0.55460   0.98740   0.22140   Biso      1.000     C          0.596544  
         C32       1.0000    0.77870   0.95180   0.49840   Biso      1.000     C          0.686991  
         C33       1.0000    0.87530   0.03070   0.42030   Biso      1.000     C          -0.410773           
         C34       1.0000    0.84920   0.09670   0.30670   Biso      1.000     C          0.114659  
         C35       1.0000    0.96780   0.16040   0.25000   Biso      1.000     C          0.61106   
         C36       1.0000    0.54760   0.65290   0.39070   Biso      1.000     C          -0.152    
         C37       1.0000    0.49200   0.73630   0.45470   Biso      1.000     C          0.084362  
         C38       1.0000    0.72790   0.72130   0.44390   Biso      1.000     C          0.095492  
         C39       1.0000    0.20680   0.36080   0.62280   Biso      1.000     C          -0.163249           
         C40       1.0000    0.27210   0.27870   0.55610   Biso      1.000     C          0.095481  
         Co1       1.0000    0.96661   0.61481   0.89703   Biso      1.000     Co          0.950426  
         Co2       1.0000    0.47845   0.88519   0.60297   Biso      1.000     Co          0.952051  
         Co3       1.0000    0.31752   0.66698   0.76372   Biso      1.000     Co          1.003855  
         Co4       1.0000    0.74822   0.83302   0.73628   Biso      1.000     Co          1.002859  
         Co5       1.0000    0.03339   0.38519   0.10297   Biso      1.000     Co          0.950659  
         Co6       1.0000    0.68248   0.33302   0.23628   Biso      1.000     Co          1.004142  
         Co7       1.0000    0.52155   0.11481   0.39703   Biso      1.000     Co          0.952366  
         Co8       1.0000    0.25178   0.16698   0.26372   Biso      1.000     Co          1.003055  
         H1        1.0000    0.14360   0.10920   0.84960   Biso      1.000     H          0.126964  
         H2        1.0000    0.01960   0.01660   0.59420   Biso      1.000     H          0.155865  
         H3        1.0000    0.13940   0.91320   0.53800   Biso      1.000     H          0.161715  
         H4        1.0000    0.13500   0.95720   0.73900   Biso      1.000     H          0.087077  
         H5        1.0000    0.10240   0.39080   0.65040   Biso      1.000     H          0.130017  
         H6        1.0000    0.61200   0.23010   0.51950   Biso      1.000     H          0.0895    
         H7        1.0000    0.20830   0.25560   0.53840   Biso      1.000     H          0.089907  
         H8        1.0000    0.00230   0.24440   0.96160   Biso      1.000     H          0.091362  
         H9        1.0000    0.36960   0.51660   0.09420   Biso      1.000     H          0.153787  
         H10       1.0000    0.51840   0.37000   0.62460   Biso      1.000     H          0.137618  
         H11       1.0000    0.36160   0.26990   0.98050   Biso      1.000     H          0.090667  
         H12       1.0000    0.40940   0.41320   0.03800   Biso      1.000     H          0.160441  
         H13       1.0000    0.83120   0.54280   0.76100   Biso      1.000     H          0.086678  
         H14       1.0000    0.16880   0.45720   0.23900   Biso      1.000     H          0.086749  
         H15       1.0000    0.48700   0.87000   0.12460   Biso      1.000     H          0.135466  
         H16       1.0000    0.63840   0.73010   0.01950   Biso      1.000     H          0.090649  
         H17       1.0000    0.99770   0.75560   0.03840   Biso      1.000     H          0.091353  
         H18       1.0000    0.85640   0.89080   0.15040   Biso      1.000     H          0.12694   
         H19       1.0000    0.98040   0.98340   0.40580   Biso      1.000     H          0.155874  
         H20       1.0000    0.86060   0.08680   0.46200   Biso      1.000     H          0.161708  
         H21       1.0000    0.86500   0.04280   0.26100   Biso      1.000     H          0.087113  
         H22       1.0000    0.48160   0.63000   0.37540   Biso      1.000     H          0.137615  
         H23       1.0000    0.38800   0.76990   0.48050   Biso      1.000     H          0.089512  
         H24       1.0000    0.79170   0.74440   0.46160   Biso      1.000     H          0.089916  
         H25       1.0000    0.51300   0.13000   0.87540   Biso      1.000     H          0.135484  
         H26       1.0000    0.89760   0.60920   0.34960   Biso      1.000     H          0.130014  
         H27       1.0000    0.63040   0.48340   0.90580   Biso      1.000     H          0.153779  
         H28       1.0000    0.59060   0.58680   0.96200   Biso      1.000     H          0.160445  
         N1        1.0000    0.83417   0.72976   0.01570   Biso      1.000     N          -0.239728           
         N2        1.0000    0.57963   0.77024   0.48430   Biso      1.000     N          -0.241086           
         N3        1.0000    0.42037   0.22976   0.51570   Biso      1.000     N          -0.241143           
         N4        1.0000    0.16583   0.27024   0.98430   Biso      1.000     N          -0.239821           
         O1        1.0000    0.66934   0.46942   0.28250   Biso      1.000     O          -0.571227           
         O2        1.0000    0.45146   0.39288   0.25840   Biso      1.000     O          -0.551708           
         O3        1.0000    0.39060   0.23480   0.29380   Biso      1.000     O          -0.60921  
         O4        1.0000    0.61225   0.00790   0.27900   Biso      1.000     O          -0.544571           
         O5        1.0000    0.19980   0.32420   0.17620   Biso      1.000     O          -0.617485           
         O6        1.0000    0.42126   0.03058   0.21750   Biso      1.000     O          -0.568391           
         O7        1.0000    0.84130   0.87250   0.56690   Biso      1.000     O          -0.572016           
         O8        1.0000    0.64148   0.97644   0.50300   Biso      1.000     O          -0.590059           
         O9        1.0000    0.70020   0.17580   0.32380   Biso      1.000     O          -0.619926           
         O10       1.0000    0.10274   0.10712   0.24160   Biso      1.000     O          -0.550338           
         O11       1.0000    0.91920   0.26520   0.20620   Biso      1.000     O          -0.60911  
         O12       1.0000    0.89915   0.49210   0.22100   Biso      1.000     O          -0.547045           
         O13       1.0000    0.71930   0.37250   0.06690   Biso      1.000     O          -0.570896           
         O14       1.0000    0.89726   0.89288   0.75840   Biso      1.000     O          -0.550445           
         O15       1.0000    0.80020   0.67580   0.82380   Biso      1.000     O          -0.617655           
         O16       1.0000    0.54854   0.60712   0.74160   Biso      1.000     O          -0.551777           
         O17       1.0000    0.60940   0.76520   0.70620   Biso      1.000     O          -0.60917  
         O18       1.0000    0.38775   0.99210   0.72100   Biso      1.000     O          -0.544572           
         O19       1.0000    0.57874   0.96942   0.78250   Biso      1.000     O          -0.568401           
         O20       1.0000    0.15870   0.12750   0.43310   Biso      1.000     O          -0.572049           
         O21       1.0000    0.35852   0.02356   0.49700   Biso      1.000     O          -0.590042           
         O22       1.0000    0.29980   0.82420   0.67620   Biso      1.000     O          -0.619916           
         O23       1.0000    0.08080   0.73480   0.79380   Biso      1.000     O          -0.609075           
         O24       1.0000    0.10085   0.50790   0.77900   Biso      1.000     O          -0.546985           
         O25       1.0000    0.33066   0.53058   0.71750   Biso      1.000     O          -0.571246           
         O26       1.0000    0.12092   0.52356   0.99700   Biso      1.000     O          -0.588672           
         O27       1.0000    0.87908   0.47644   0.00300   Biso      1.000     O          -0.588559           
         O28       1.0000    0.28070   0.62750   0.93310   Biso      1.000     O          -0.570892 