
##########################################################################
#               Crystallographic Information Format file
#               Produced by PyCifRW module
#
#  This is a CIF file.  CIF has been adopted by the International
#  Union of Crystallography as the standard for data archiving and
#  transmission.
#
#  For information on this file format, follow the CIF links at
#  http://www.iucr.org
##########################################################################

data_image0

_cell_length_a                          10.096
_cell_length_b                          12.8422
_cell_length_c                          12.9731
_cell_angle_alpha                       71.014
_cell_angle_beta                        67.1008
_cell_angle_gamma                       66.8539
_symmetry_space_group_name_H-M          'P 1'
_symmetry_int_tables_number             1
loop_
  _symmetry_equiv_pos_as_xyz
         'x, y, z' 
loop_
  _atom_site_label
  _atom_site_occupancy
  _atom_site_fract_x
  _atom_site_fract_y
  _atom_site_fract_z
  _atom_site_thermal_displace_type
  _atom_site_B_iso_or_equiv
  _atom_site_type_symbol
  _atom_site_charge
         C1        1.0000    0.74510   0.59720   0.80900   Biso      1.000     C          0.102484  
         C2        1.0000    0.67210   0.53200   0.92220   Biso      1.000     C          -0.386963           
         C3        1.0000    0.62190   0.66090   0.75010   Biso      1.000     C          0.601754  
         C4        1.0000    0.54720   0.65250   0.39110   Biso      1.000     C          -0.145844           
         C5        1.0000    0.49130   0.73590   0.45530   Biso      1.000     C          0.078261  
         C6        1.0000    0.72770   0.72240   0.44260   Biso      1.000     C          0.087853  
         C7        1.0000    0.79140   0.64110   0.37610   Biso      1.000     C          -0.158259           
         C8        1.0000    0.69980   0.60400   0.34980   Biso      1.000     C          0.020391  
         C9        1.0000    0.77130   0.45170   0.99790   Biso      1.000     C          0.675353  
         C10       1.0000    0.76410   0.51180   0.27800   Biso      1.000     C          0.603726  
         C11       1.0000    0.12630   0.96800   0.57780   Biso      1.000     C          -0.386015           
         C12       1.0000    0.15130   0.90280   0.69100   Biso      1.000     C          0.105468  
         C13       1.0000    0.03290   0.83910   0.74990   Biso      1.000     C          0.606457  
         C14       1.0000    0.59080   0.84750   0.10890   Biso      1.000     C          -0.148273           
         C15       1.0000    0.68250   0.76410   0.04470   Biso      1.000     C          0.079472  
         C16       1.0000    0.55390   0.98820   0.22200   Biso      1.000     C          0.603053  
         C17       1.0000    0.65360   0.89600   0.15020   Biso      1.000     C          0.021493  
         C18       1.0000    0.22090   0.04830   0.50210   Biso      1.000     C          0.678048  
         C19       1.0000    0.44610   0.01180   0.77800   Biso      1.000     C          0.598878  
         C20       1.0000    0.34640   0.10400   0.84980   Biso      1.000     C          0.022805  
         C21       1.0000    0.19140   0.14110   0.87610   Biso      1.000     C          -0.158056           
         C22       1.0000    0.22870   0.54830   0.00210   Biso      1.000     C          0.674844  
         C23       1.0000    0.32790   0.46800   0.07780   Biso      1.000     C          -0.387014           
         C24       1.0000    0.25490   0.40280   0.19100   Biso      1.000     C          0.102514  
         C25       1.0000    0.37810   0.33910   0.24990   Biso      1.000     C          0.606602  
         C26       1.0000    0.45280   0.34750   0.60890   Biso      1.000     C          -0.146662           
         C27       1.0000    0.50870   0.26410   0.54470   Biso      1.000     C          0.081207  
         C28       1.0000    0.27230   0.27760   0.55740   Biso      1.000     C          0.091628  
         C29       1.0000    0.20860   0.35890   0.62390   Biso      1.000     C          -0.15926  
         C30       1.0000    0.30020   0.39600   0.65020   Biso      1.000     C          0.021043  
         C31       1.0000    0.23590   0.48820   0.72200   Biso      1.000     C          0.603522  
         C32       1.0000    0.77910   0.95170   0.49790   Biso      1.000     C          0.676148  
         C33       1.0000    0.87370   0.03200   0.42220   Biso      1.000     C          -0.386313           
         C34       1.0000    0.84870   0.09720   0.30900   Biso      1.000     C          0.10601   
         C35       1.0000    0.96710   0.16090   0.25010   Biso      1.000     C          0.605968  
         C36       1.0000    0.40920   0.15250   0.89110   Biso      1.000     C          -0.147629           
         C37       1.0000    0.31750   0.23590   0.95530   Biso      1.000     C          0.080075  
         C38       1.0000    0.10730   0.22240   0.94260   Biso      1.000     C          0.089382  
         C39       1.0000    0.80860   0.85890   0.12390   Biso      1.000     C          -0.157795           
         C40       1.0000    0.89270   0.77760   0.05740   Biso      1.000     C          0.088303  
         Co1       1.0000    0.96579   0.61527   0.89717   Biso      1.000     Co          0.943591  
         Co2       1.0000    0.47823   0.88473   0.60283   Biso      1.000     Co          0.811647  
         Co3       1.0000    0.25240   0.16702   0.26346   Biso      1.000     Co          1.001985  
         Co4       1.0000    0.68288   0.33298   0.23654   Biso      1.000     Co          1.000693  
         Co5       1.0000    0.03421   0.38473   0.10283   Biso      1.000     Co          0.947178  
         Co6       1.0000    0.74760   0.83298   0.73654   Biso      1.000     Co          0.995666  
         Co7       1.0000    0.52177   0.11527   0.39717   Biso      1.000     Co          0.94774   
         Co8       1.0000    0.31712   0.66702   0.76346   Biso      1.000     Co          0.989277  
         H1        1.0000    0.89590   0.61090   0.34850   Biso      1.000     H          0.128524  
         H2        1.0000    0.02070   0.01380   0.59180   Biso      1.000     H          0.154724  
         H3        1.0000    0.14410   0.91190   0.53490   Biso      1.000     H          0.164634  
         H4        1.0000    0.14260   0.92810   0.75590   Biso      1.000     H          0.092021  
         H5        1.0000    0.85530   0.88910   0.15150   Biso      1.000     H          0.125644  
         H6        1.0000    0.63790   0.73040   0.01900   Biso      1.000     H          0.092154  
         H7        1.0000    0.99730   0.75460   0.03960   Biso      1.000     H          0.093085  
         H8        1.0000    0.79150   0.74540   0.46040   Biso      1.000     H          0.093397  
         H9        1.0000    0.37370   0.51380   0.09180   Biso      1.000     H          0.155534  
         H10       1.0000    0.48650   0.87040   0.12420   Biso      1.000     H          0.135586  
         H11       1.0000    0.38730   0.76960   0.48100   Biso      1.000     H          0.091972  
         H12       1.0000    0.40910   0.41190   0.03490   Biso      1.000     H          0.166511  
         H13       1.0000    0.82660   0.57190   0.74410   Biso      1.000     H          0.093734  
         H14       1.0000    0.17340   0.42810   0.25590   Biso      1.000     H          0.094077  
         H15       1.0000    0.51890   0.37040   0.62420   Biso      1.000     H          0.135367  
         H16       1.0000    0.61270   0.23040   0.51900   Biso      1.000     H          0.089557  
         H17       1.0000    0.20850   0.25460   0.53960   Biso      1.000     H          0.091383  
         H18       1.0000    0.10410   0.38910   0.65150   Biso      1.000     H          0.127435  
         H19       1.0000    0.97930   0.98620   0.40820   Biso      1.000     H          0.156019  
         H20       1.0000    0.85590   0.08810   0.46510   Biso      1.000     H          0.165329  
         H21       1.0000    0.85740   0.07190   0.24410   Biso      1.000     H          0.093212  
         H22       1.0000    0.51350   0.12960   0.87580   Biso      1.000     H          0.135833  
         H23       1.0000    0.36210   0.26960   0.98100   Biso      1.000     H          0.092366  
         H24       1.0000    0.00270   0.24540   0.96040   Biso      1.000     H          0.093281  
         H25       1.0000    0.48110   0.62960   0.37580   Biso      1.000     H          0.136245  
         H26       1.0000    0.14470   0.11090   0.84850   Biso      1.000     H          0.125932  
         H27       1.0000    0.62630   0.48620   0.90820   Biso      1.000     H          0.155567  
         H28       1.0000    0.59090   0.58810   0.96510   Biso      1.000     H          0.166594  
         N1        1.0000    0.42040   0.22940   0.51700   Biso      1.000     N          -0.241154           
         N2        1.0000    0.16680   0.27060   0.98300   Biso      1.000     N          -0.239563           
         N3        1.0000    0.83320   0.72940   0.01700   Biso      1.000     N          -0.239848           
         N4        1.0000    0.57960   0.77060   0.48300   Biso      1.000     N          -0.203644           
         O1        1.0000    0.38820   0.99110   0.72250   Biso      1.000     O          -0.504844           
         O2        1.0000    0.45190   0.39230   0.25830   Biso      1.000     O          -0.555314           
         O3        1.0000    0.39140   0.23470   0.29370   Biso      1.000     O          -0.608506           
         O4        1.0000    0.33120   0.53050   0.71850   Biso      1.000     O          -0.576884           
         O5        1.0000    0.20030   0.32410   0.17550   Biso      1.000     O          -0.624806           
         O6        1.0000    0.10180   0.50890   0.77750   Biso      1.000     O          -0.536208           
         O7        1.0000    0.84100   0.87260   0.56660   Biso      1.000     O          -0.568657           
         O8        1.0000    0.64086   0.97728   0.50300   Biso      1.000     O          -0.561727           
         O9        1.0000    0.69990   0.17590   0.32450   Biso      1.000     O          -0.627558           
         O10       1.0000    0.10250   0.10770   0.24170   Biso      1.000     O          -0.555653           
         O11       1.0000    0.91980   0.26530   0.20630   Biso      1.000     O          -0.607736           
         O12       1.0000    0.58020   0.96950   0.78150   Biso      1.000     O          -0.574808           
         O13       1.0000    0.71980   0.37260   0.06660   Biso      1.000     O          -0.570283           
         O14       1.0000    0.89750   0.89230   0.75830   Biso      1.000     O          -0.550361           
         O15       1.0000    0.79970   0.67590   0.82450   Biso      1.000     O          -0.623663           
         O16       1.0000    0.54810   0.60770   0.74170   Biso      1.000     O          -0.552285           
         O17       1.0000    0.60860   0.76530   0.70630   Biso      1.000     O          -0.591547           
         O18       1.0000    0.66880   0.46950   0.28150   Biso      1.000     O          -0.57708  
         O19       1.0000    0.89820   0.49110   0.22250   Biso      1.000     O          -0.536259           
         O20       1.0000    0.15900   0.12740   0.43340   Biso      1.000     O          -0.573318           
         O21       1.0000    0.35914   0.02272   0.49700   Biso      1.000     O          -0.577875           
         O22       1.0000    0.30010   0.82410   0.67550   Biso      1.000     O          -0.591355           
         O23       1.0000    0.08020   0.73470   0.79370   Biso      1.000     O          -0.603649           
         O24       1.0000    0.41980   0.03050   0.21850   Biso      1.000     O          -0.577507           
         O25       1.0000    0.61180   0.00890   0.27750   Biso      1.000     O          -0.535504           
         O26       1.0000    0.12114   0.52272   0.99700   Biso      1.000     O          -0.585953           
         O27       1.0000    0.87886   0.47728   0.00300   Biso      1.000     O          -0.585738           
         O28       1.0000    0.28020   0.62740   0.93340   Biso      1.000     O          -0.56887 