
##########################################################################
#               Crystallographic Information Format file
#               Produced by PyCifRW module
#
#  This is a CIF file.  CIF has been adopted by the International
#  Union of Crystallography as the standard for data archiving and
#  transmission.
#
#  For information on this file format, follow the CIF links at
#  http://www.iucr.org
##########################################################################

data_image0

_cell_length_a                          12.4561
_cell_length_b                          12.5595
_cell_length_c                          16.592
_cell_angle_alpha                       83.2753
_cell_angle_beta                        76.3411
_cell_angle_gamma                       60.2719
_symmetry_space_group_name_H-M          'P 1'
_symmetry_int_tables_number             1
loop_
  _symmetry_equiv_pos_as_xyz
         'x, y, z' 
loop_
  _atom_site_label
  _atom_site_occupancy
  _atom_site_fract_x
  _atom_site_fract_y
  _atom_site_fract_z
  _atom_site_thermal_displace_type
  _atom_site_B_iso_or_equiv
  _atom_site_type_symbol
  _atom_site_charge
         C1        1.0000    0.79950   0.09560   0.77140   Biso      1.000     C          -0.141536           
         C2        1.0000    0.01930   0.20840   0.34870   Biso      1.000     C          -0.10195599999999999          
         C3        1.0000    0.08890   0.20840   0.26890   Biso      1.000     C          -0.015437000000000001         
         C4        1.0000    0.21650   0.19680   0.25970   Biso      1.000     C          0.657352  
         C5        1.0000    0.01170   0.55960   0.09340   Biso      1.000     C          -0.146175           
         C6        1.0000    0.08960   0.32640   0.90060   Biso      1.000     C          -0.114327           
         C7        1.0000    0.03930   0.47860   0.02890   Biso      1.000     C          0.08717799999999999           
         C8        1.0000    0.14470   0.36000   0.02030   Biso      1.000     C          -0.172689           
         C9        1.0000    0.17040   0.28540   0.95750   Biso      1.000     C          -0.020467           
         C10       1.0000    0.28450   0.15920   0.94620   Biso      1.000     C          0.618887  
         C11       1.0000    0.99140   0.09980   0.77260   Biso      1.000     C          0.07739700000000001           
         C12       1.0000    0.85530   0.64000   0.97970   Biso      1.000     C          -0.172689           
         C13       1.0000    0.96070   0.09920   0.85940   Biso      1.000     C          -0.12143599999999999          
         C14       1.0000    0.85400   0.09720   0.89990   Biso      1.000     C          -0.113275           
         C15       1.0000    0.77180   0.09440   0.85500   Biso      1.000     C          -0.010626           
         C16       1.0000    0.65840   0.08580   0.90260   Biso      1.000     C          0.6376109999999999  
         C17       1.0000    0.07280   0.78620   0.78950   Biso      1.000     C          0.08126799999999999           
         C18       1.0000    0.25600   0.78780   0.70140   Biso      1.000     C          -0.133345           
         C19       1.0000    0.11840   0.78760   0.85860   Biso      1.000     C          -0.119684           
         C20       1.0000    0.22770   0.79160   0.84870   Biso      1.000     C          -0.101934           
         C21       1.0000    0.29730   0.79160   0.76890   Biso      1.000     C          -0.01542  
         C22       1.0000    0.41330   0.80320   0.75970   Biso      1.000     C          0.657349  
         C23       1.0000    0.42870   0.55960   0.40660   Biso      1.000     C          -0.146172           
         C24       1.0000    0.58400   0.32640   0.59940   Biso      1.000     C          -0.114325           
         C25       1.0000    0.90600   0.21240   0.35860   Biso      1.000     C          -0.11966800000000001          
         C26       1.0000    0.48210   0.47860   0.47110   Biso      1.000     C          0.08718300000000001           
         C27       1.0000    0.04380   0.21220   0.20140   Biso      1.000     C          -0.133322           
         C28       1.0000    0.74420   0.91420   0.40260   Biso      1.000     C          0.6376149999999999  
         C29       1.0000    0.00860   0.90020   0.22740   Biso      1.000     C          0.077394  
         C30       1.0000    0.20050   0.90440   0.22860   Biso      1.000     C          -0.141536           
         C31       1.0000    0.03930   0.90080   0.14060   Biso      1.000     C          -0.12143499999999999          
         C32       1.0000    0.14600   0.90280   0.10010   Biso      1.000     C          -0.11327999999999999          
         C33       1.0000    0.22820   0.90560   0.14500   Biso      1.000     C          -0.010629000000000001         
         C34       1.0000    0.34160   0.91420   0.09740   Biso      1.000     C          0.63761   
         C35       1.0000    0.92720   0.21380   0.21050   Biso      1.000     C          0.081265  
         C36       1.0000    0.74400   0.21220   0.29860   Biso      1.000     C          -0.13334300000000002          
         C37       1.0000    0.88160   0.21240   0.14140   Biso      1.000     C          -0.119683           
         C38       1.0000    0.77230   0.20840   0.15130   Biso      1.000     C          -0.10193300000000001          
         C39       1.0000    0.70270   0.20840   0.23110   Biso      1.000     C          -0.015423           
         C40       1.0000    0.58670   0.19680   0.24030   Biso      1.000     C          0.65735   
         C41       1.0000    0.57130   0.44040   0.59340   Biso      1.000     C          -0.14615899999999998          
         C42       1.0000    0.41600   0.67360   0.40060   Biso      1.000     C          -0.11431  
         C43       1.0000    0.51790   0.52140   0.52890   Biso      1.000     C          0.08718200000000001           
         C44       1.0000    0.50470   0.64000   0.52030   Biso      1.000     C          -0.172702           
         C45       1.0000    0.45580   0.71460   0.45750   Biso      1.000     C          -0.020465           
         C46       1.0000    0.44370   0.84080   0.44620   Biso      1.000     C          0.6188859999999999  
         C47       1.0000    0.09120   0.90020   0.27260   Biso      1.000     C          0.077391  
         C48       1.0000    0.89510   0.90440   0.27140   Biso      1.000     C          -0.141538           
         C49       1.0000    0.05990   0.90080   0.35940   Biso      1.000     C          -0.121428           
         C50       1.0000    0.95120   0.90280   0.39990   Biso      1.000     C          -0.11327999999999999          
         C51       1.0000    0.86620   0.90560   0.35500   Biso      1.000     C          -0.010643999999999999         
         C52       1.0000    0.85900   0.21380   0.28950   Biso      1.000     C          0.081272  
         C53       1.0000    0.49530   0.36000   0.47970   Biso      1.000     C          -0.172702           
         C54       1.0000    0.54420   0.28540   0.54250   Biso      1.000     C          -0.020463           
         C55       1.0000    0.55630   0.15920   0.55380   Biso      1.000     C          0.6188859999999999  
         C56       1.0000    0.98830   0.44040   0.90660   Biso      1.000     C          -0.146162           
         C57       1.0000    0.91040   0.67360   0.09940   Biso      1.000     C          -0.114311           
         C58       1.0000    0.96070   0.52140   0.97110   Biso      1.000     C          0.087176  
         C59       1.0000    0.71550   0.84080   0.05380   Biso      1.000     C          0.618888  
         C60       1.0000    0.78350   0.80320   0.74030   Biso      1.000     C          0.65735   
         C61       1.0000    0.91110   0.79160   0.73110   Biso      1.000     C          -0.015433           
         C62       1.0000    0.98070   0.79160   0.65130   Biso      1.000     C          -0.10195599999999999          
         C63       1.0000    0.09400   0.78760   0.64140   Biso      1.000     C          -0.11967  
         C64       1.0000    0.82960   0.71460   0.04250   Biso      1.000     C          -0.020469           
         C65       1.0000    0.14100   0.78620   0.71050   Biso      1.000     C          0.081275  
         C66       1.0000    0.25580   0.08580   0.59740   Biso      1.000     C          0.63762   
         C67       1.0000    0.13380   0.09440   0.64500   Biso      1.000     C          -0.010676           
         C68       1.0000    0.90880   0.09980   0.72740   Biso      1.000     C          0.07739800000000001           
         C69       1.0000    0.10490   0.09560   0.72860   Biso      1.000     C          -0.1415   
         C70       1.0000    0.94010   0.09920   0.64060   Biso      1.000     C          -0.12143  
         C71       1.0000    0.04880   0.09720   0.60010   Biso      1.000     C          -0.113272           
         C72       1.0000    0.95620   0.78780   0.79860   Biso      1.000     C          -0.133324           
         H1        1.0000    0.01450   0.10000   0.88950   Biso      1.000     H          0.11921500000000002           
         H2        1.0000    0.83430   0.09780   0.95760   Biso      1.000     H          0.11944300000000001           
         H3        1.0000    0.30360   0.78620   0.64860   Biso      1.000     H          0.12129300000000001           
         H4        1.0000    0.07360   0.78560   0.91170   Biso      1.000     H          0.119228  
         H5        1.0000    0.25630   0.79460   0.89500   Biso      1.000     H          0.12106199999999999           
         H6        1.0000    0.40240   0.53380   0.36840   Biso      1.000     H          0.12426400000000001           
         H7        1.0000    0.16100   0.09360   0.75780   Biso      1.000     H          0.13322799999999999           
         H8        1.0000    0.47000   0.33260   0.44180   Biso      1.000     H          0.11753   
         H9        1.0000    0.88550   0.10000   0.61050   Biso      1.000     H          0.11921300000000001           
         H10       1.0000    0.06790   0.09780   0.54240   Biso      1.000     H          0.119448  
         H11       1.0000    0.91020   0.78620   0.85140   Biso      1.000     H          0.12129200000000001           
         H12       1.0000    0.14080   0.78560   0.58830   Biso      1.000     H          0.119229  
         H13       1.0000    0.94910   0.79460   0.60500   Biso      1.000     H          0.121064  
         H14       1.0000    0.61940   0.27460   0.64170   Biso      1.000     H          0.11890899999999999           
         H15       1.0000    0.74540   0.09360   0.74220   Biso      1.000     H          0.133231  
         H16       1.0000    0.06380   0.53380   0.13160   Biso      1.000     H          0.12426500000000001           
         H17       1.0000    0.10600   0.27460   0.85830   Biso      1.000     H          0.11890799999999999           
         H18       1.0000    0.93620   0.46620   0.86840   Biso      1.000     H          0.12426300000000001           
         H19       1.0000    0.89400   0.72540   0.14170   Biso      1.000     H          0.11890899999999999           
         H20       1.0000    0.80260   0.66740   0.94180   Biso      1.000     H          0.11752699999999999           
         H21       1.0000    0.25460   0.90640   0.25780   Biso      1.000     H          0.133225  
         H22       1.0000    0.98550   0.90000   0.11050   Biso      1.000     H          0.119208  
         H23       1.0000    0.16570   0.90220   0.04240   Biso      1.000     H          0.11943699999999999           
         H24       1.0000    0.69640   0.21380   0.35140   Biso      1.000     H          0.12129000000000001           
         H25       1.0000    0.92640   0.21440   0.08830   Biso      1.000     H          0.119224  
         H26       1.0000    0.74370   0.20540   0.10500   Biso      1.000     H          0.12105899999999999           
         H27       1.0000    0.59760   0.46620   0.63160   Biso      1.000     H          0.12426500000000001           
         H28       1.0000    0.38060   0.72540   0.35830   Biso      1.000     H          0.118907  
         H29       1.0000    0.53000   0.66740   0.55820   Biso      1.000     H          0.11753   
         H30       1.0000    0.83900   0.90640   0.24220   Biso      1.000     H          0.133225  
         H31       1.0000    0.93210   0.90220   0.45760   Biso      1.000     H          0.11944300000000001           
         H32       1.0000    0.08980   0.21380   0.14860   Biso      1.000     H          0.12128900000000001           
         H33       1.0000    0.85920   0.21440   0.41170   Biso      1.000     H          0.119225  
         H34       1.0000    0.05090   0.20540   0.39500   Biso      1.000     H          0.12106199999999999           
         H35       1.0000    0.19740   0.33260   0.05820   Biso      1.000     H          0.11752699999999999           
         H36       1.0000    0.11450   0.90000   0.38950   Biso      1.000     H          0.11920599999999999           
         La1       1.0000    0.57639   0.90618   0.59998   Biso      1.000     La          1.892291  
         La2       1.0000    0.48257   0.09382   0.09998   Biso      1.000     La          1.892293  
         La3       1.0000    0.42361   0.09382   0.40002   Biso      1.000     La          1.8922869999999998  
         La4       1.0000    0.51743   0.90618   0.90002   Biso      1.000     La          1.8922970000000001  
         O1        1.0000    0.63796   0.87388   0.00660   Biso      1.000     O          -0.6977220000000001           
         O2        1.0000    0.70130   0.90800   0.10850   Biso      1.000     O          -0.562388           
         O3        1.0000    0.37870   0.88360   0.02340   Biso      1.000     O          -0.633364           
         O4        1.0000    0.39270   0.95160   0.13510   Biso      1.000     O          -0.610151           
         O5        1.0000    0.51630   0.21080   0.31020   Biso      1.000     O          -0.642225           
         O6        1.0000    0.56690   0.17440   0.17600   Biso      1.000     O          -0.628941           
         O7        1.0000    0.48816   0.87388   0.49340   Biso      1.000     O          -0.697719           
         O8        1.0000    0.39070   0.90800   0.39150   Biso      1.000     O          -0.562387           
         O9        1.0000    0.73770   0.88360   0.47660   Biso      1.000     O          -0.633365           
         O10       1.0000    0.65570   0.95160   0.36490   Biso      1.000     O          -0.6101489999999999           
         O11       1.0000    0.27290   0.21080   0.18980   Biso      1.000     O          -0.642228           
         O12       1.0000    0.25870   0.17440   0.32400   Biso      1.000     O          -0.628938           
         O13       1.0000    0.36204   0.12612   0.99340   Biso      1.000     O          -0.697723           
         O14       1.0000    0.29870   0.09200   0.89150   Biso      1.000     O          -0.562389           
         O15       1.0000    0.62130   0.11640   0.97660   Biso      1.000     O          -0.633362           
         O16       1.0000    0.60730   0.04840   0.86490   Biso      1.000     O          -0.6101449999999999           
         O17       1.0000    0.48370   0.78920   0.68980   Biso      1.000     O          -0.642227           
         O18       1.0000    0.43310   0.82560   0.82400   Biso      1.000     O          -0.628941           
         O19       1.0000    0.51184   0.12612   0.50660   Biso      1.000     O          -0.69772  
         O20       1.0000    0.60930   0.09200   0.60850   Biso      1.000     O          -0.562387           
         O21       1.0000    0.26230   0.11640   0.52340   Biso      1.000     O          -0.633363           
         O22       1.0000    0.34430   0.04840   0.63510   Biso      1.000     O          -0.6101449999999999           
         O23       1.0000    0.72710   0.78920   0.81020   Biso      1.000     O          -0.642229           
         O24       1.0000    0.74130   0.82560   0.67600   Biso      1.000     O          -0.628938           
         O25       1.0000    0.49320   0.01360   0.75000   Biso      1.000     O          -0.320921           
         O26       1.0000    0.50680   0.98640   0.25000   Biso      1.000     O          -0.32088 