
##########################################################################
#               Crystallographic Information Format file
#               Produced by PyCifRW module
#
#  This is a CIF file.  CIF has been adopted by the International
#  Union of Crystallography as the standard for data archiving and
#  transmission.
#
#  For information on this file format, follow the CIF links at
#  http://www.iucr.org
##########################################################################

data_image0

_cell_length_a                          11.0942
_cell_length_b                          11.0942
_cell_length_c                          21.044
_cell_angle_alpha                       95.893
_cell_angle_beta                        95.893
_cell_angle_gamma                       107.215
_symmetry_space_group_name_H-M          'P 1'
_symmetry_int_tables_number             1
loop_
  _symmetry_equiv_pos_as_xyz
         'x, y, z' 
loop_
  _atom_site_label
  _atom_site_occupancy
  _atom_site_fract_x
  _atom_site_fract_y
  _atom_site_fract_z
  _atom_site_thermal_displace_type
  _atom_site_B_iso_or_equiv
  _atom_site_type_symbol
  _atom_site_charge
         C1        1.0000    0.46019   0.35801   0.43671   Biso      1.000     C          -0.17397  
         C2        1.0000    0.08150   0.77550   0.85892   Biso      1.000     C          0.645059  
         C3        1.0000    0.33390   0.98330   0.01627   Biso      1.000     C          -0.136461           
         C4        1.0000    0.56137   0.01243   0.01776   Biso      1.000     C          0.085171  
         C5        1.0000    0.57477   0.03223   0.08644   Biso      1.000     C          -0.139844           
         C6        1.0000    0.34935   0.00005   0.08198   Biso      1.000     C          -0.11074  
         C7        1.0000    0.47168   0.02572   0.11758   Biso      1.000     C          -0.014223           
         C8        1.0000    0.48414   0.03786   0.18935   Biso      1.000     C          0.626681  
         C9        1.0000    0.34280   0.41380   0.52377   Biso      1.000     C          -0.15279500000000001          
         C10       1.0000    0.66370   0.50290   0.42484   Biso      1.000     C          -0.109778           
         C11       1.0000    0.45030   0.44230   0.48998   Biso      1.000     C          0.081847  
         C12       1.0000    0.51586   0.96214   0.81065   Biso      1.000     C          0.62668   
         C13       1.0000    0.56442   0.38718   0.40472   Biso      1.000     C          -0.028576           
         C14       1.0000    0.57518   0.29362   0.34980   Biso      1.000     C          0.660307  
         C15       1.0000    0.09220   0.05220   0.43284   Biso      1.000     C          -0.153257           
         C16       1.0000    0.93680   0.98760   0.50732   Biso      1.000     C          0.081423  
         C17       1.0000    0.84300   0.00600   0.46090   Biso      1.000     C          -0.169009           
         C18       1.0000    0.99950   0.07210   0.39021   Biso      1.000     C          -0.106358           
         C19       1.0000    0.87300   0.04960   0.40441   Biso      1.000     C          -0.028076           
         C20       1.0000    0.77550   0.08150   0.35892   Biso      1.000     C          0.645058  
         C21       1.0000    0.01670   0.66610   0.48373   Biso      1.000     C          -0.136461           
         C22       1.0000    0.98757   0.43863   0.48224   Biso      1.000     C          0.085172  
         C23       1.0000    0.96777   0.42523   0.41356   Biso      1.000     C          -0.139843           
         C24       1.0000    0.99995   0.65065   0.41802   Biso      1.000     C          -0.11074  
         C25       1.0000    0.04960   0.87300   0.90441   Biso      1.000     C          -0.028087           
         C26       1.0000    0.97428   0.52832   0.38242   Biso      1.000     C          -0.014223           
         C27       1.0000    0.07210   0.99950   0.89021   Biso      1.000     C          -0.10636099999999998          
         C28       1.0000    0.98760   0.93680   0.00732   Biso      1.000     C          0.081423  
         C29       1.0000    0.54970   0.55770   0.51002   Biso      1.000     C          0.081844  
         C30       1.0000    0.53981   0.64199   0.56329   Biso      1.000     C          -0.173968           
         C31       1.0000    0.43558   0.61282   0.59528   Biso      1.000     C          -0.028579000000000004         
         C32       1.0000    0.42482   0.70638   0.65020   Biso      1.000     C          0.660307  
         C33       1.0000    0.90780   0.94780   0.56716   Biso      1.000     C          -0.153258           
         C34       1.0000    0.06320   0.01240   0.49268   Biso      1.000     C          0.08142200000000001           
         C35       1.0000    0.15700   0.99400   0.53910   Biso      1.000     C          -0.169009           
         C36       1.0000    0.00050   0.92790   0.60979   Biso      1.000     C          -0.106358           
         C37       1.0000    0.12700   0.95040   0.59559   Biso      1.000     C          -0.028076           
         C38       1.0000    0.22450   0.91850   0.64108   Biso      1.000     C          0.645058  
         C39       1.0000    0.98330   0.33390   0.51627   Biso      1.000     C          -0.136461           
         C40       1.0000    0.01243   0.56137   0.51776   Biso      1.000     C          0.085172  
         C41       1.0000    0.03223   0.57477   0.58644   Biso      1.000     C          -0.139844           
         C42       1.0000    0.00005   0.34935   0.58198   Biso      1.000     C          -0.11074  
         C43       1.0000    0.02572   0.47168   0.61758   Biso      1.000     C          -0.014223           
         C44       1.0000    0.03786   0.48414   0.68935   Biso      1.000     C          0.626681  
         C45       1.0000    0.41380   0.34280   0.02377   Biso      1.000     C          -0.15279500000000001          
         C46       1.0000    0.50290   0.66370   0.92484   Biso      1.000     C          -0.109778           
         C47       1.0000    0.44230   0.45030   0.98998   Biso      1.000     C          0.081846  
         C48       1.0000    0.35801   0.46019   0.93671   Biso      1.000     C          -0.173968           
         C49       1.0000    0.38718   0.56442   0.90472   Biso      1.000     C          -0.028576999999999998         
         C50       1.0000    0.29362   0.57518   0.84980   Biso      1.000     C          0.660307  
         C51       1.0000    0.05220   0.09220   0.93284   Biso      1.000     C          -0.153253           
         C52       1.0000    0.00600   0.84300   0.96090   Biso      1.000     C          -0.168998           
         C53       1.0000    0.96214   0.51586   0.31065   Biso      1.000     C          0.626681  
         C54       1.0000    0.58620   0.65720   0.97623   Biso      1.000     C          -0.15278599999999998          
         C55       1.0000    0.49710   0.33630   0.07516   Biso      1.000     C          -0.109769           
         C56       1.0000    0.66610   0.01670   0.98373   Biso      1.000     C          -0.136461           
         C57       1.0000    0.43863   0.98757   0.98224   Biso      1.000     C          0.085173  
         C58       1.0000    0.42523   0.96777   0.91356   Biso      1.000     C          -0.139843           
         C59       1.0000    0.65065   0.99995   0.91802   Biso      1.000     C          -0.11074  
         C60       1.0000    0.52832   0.97428   0.88242   Biso      1.000     C          -0.014222           
         C61       1.0000    0.33630   0.49710   0.57516   Biso      1.000     C          -0.109767           
         C62       1.0000    0.91850   0.22450   0.14108   Biso      1.000     C          0.645059  
         C63       1.0000    0.95040   0.12700   0.09559   Biso      1.000     C          -0.028087           
         C64       1.0000    0.65720   0.58620   0.47623   Biso      1.000     C          -0.152784           
         C65       1.0000    0.99400   0.15700   0.03910   Biso      1.000     C          -0.168997           
         C66       1.0000    0.01240   0.06320   0.99268   Biso      1.000     C          0.08142   
         C67       1.0000    0.94780   0.90780   0.06716   Biso      1.000     C          -0.153258           
         C68       1.0000    0.70638   0.42482   0.15020   Biso      1.000     C          0.6603060000000001  
         C69       1.0000    0.92790   0.00050   0.10979   Biso      1.000     C          -0.106357           
         C70       1.0000    0.64199   0.53981   0.06329   Biso      1.000     C          -0.173969           
         C71       1.0000    0.55770   0.54970   0.01002   Biso      1.000     C          0.081847  
         C72       1.0000    0.61282   0.43558   0.09528   Biso      1.000     C          -0.028576999999999998         
         H1        1.0000    0.39360   0.28020   0.42300   Biso      1.000     H          0.11871199999999998           
         H2        1.0000    0.17580   0.06540   0.42200   Biso      1.000     H          0.120859  
         H3        1.0000    0.75760   0.98740   0.46960   Biso      1.000     H          0.125065  
         H4        1.0000    0.02040   0.10140   0.35070   Biso      1.000     H          0.125399  
         H5        1.0000    0.03140   0.74820   0.50710   Biso      1.000     H          0.103121  
         H6        1.0000    0.94990   0.34350   0.38920   Biso      1.000     H          0.12565199999999999           
         H7        1.0000    0.66350   0.72490   0.98940   Biso      1.000     H          0.111576  
         H8        1.0000    0.73570   0.52330   0.40250   Biso      1.000     H          0.10681199999999999           
         H9        1.0000    0.71980   0.60640   0.07700   Biso      1.000     H          0.11871199999999998           
         H10       1.0000    0.93460   0.82420   0.07800   Biso      1.000     H          0.120859  
         H11       1.0000    0.01260   0.24240   0.03040   Biso      1.000     H          0.125064  
         H12       1.0000    0.89860   0.97960   0.14930   Biso      1.000     H          0.125398  
         H13       1.0000    0.00550   0.72230   0.39600   Biso      1.000     H          0.116121  
         H14       1.0000    0.47670   0.26430   0.09750   Biso      1.000     H          0.10681199999999999           
         H15       1.0000    0.27770   0.99450   0.10400   Biso      1.000     H          0.116121  
         H16       1.0000    0.65650   0.05010   0.11080   Biso      1.000     H          0.12565199999999999           
         H17       1.0000    0.74820   0.03140   0.00710   Biso      1.000     H          0.103121  
         H18       1.0000    0.34350   0.94990   0.88920   Biso      1.000     H          0.125651  
         H19       1.0000    0.72230   0.00550   0.89600   Biso      1.000     H          0.116121  
         H20       1.0000    0.72490   0.66350   0.48940   Biso      1.000     H          0.111576  
         H21       1.0000    0.26430   0.47670   0.59750   Biso      1.000     H          0.10681199999999999           
         H22       1.0000    0.60640   0.71980   0.57700   Biso      1.000     H          0.11871199999999998           
         H23       1.0000    0.82420   0.93460   0.57800   Biso      1.000     H          0.120859  
         H24       1.0000    0.24240   0.01260   0.53040   Biso      1.000     H          0.125065  
         H25       1.0000    0.27510   0.33650   0.51060   Biso      1.000     H          0.111576  
         H26       1.0000    0.97960   0.89860   0.64930   Biso      1.000     H          0.125399  
         H27       1.0000    0.05010   0.65650   0.61080   Biso      1.000     H          0.12565199999999999           
         H28       1.0000    0.99450   0.27770   0.60400   Biso      1.000     H          0.116121  
         H29       1.0000    0.33650   0.27510   0.01060   Biso      1.000     H          0.111576  
         H30       1.0000    0.52330   0.73570   0.90250   Biso      1.000     H          0.106813  
         H31       1.0000    0.28020   0.39360   0.92300   Biso      1.000     H          0.11871199999999998           
         H32       1.0000    0.98740   0.75760   0.96960   Biso      1.000     H          0.125064  
         H33       1.0000    0.10140   0.02040   0.85070   Biso      1.000     H          0.125399  
         H34       1.0000    0.25180   0.96860   0.99290   Biso      1.000     H          0.103121  
         H35       1.0000    0.96860   0.25180   0.49290   Biso      1.000     H          0.103121  
         H36       1.0000    0.06540   0.17580   0.92200   Biso      1.000     H          0.120858  
         Mg1       1.0000    0.98216   0.49898   0.19429   Biso      1.000     Mg          1.449918  
         Mg2       1.0000    0.24734   0.75266   0.75000   Biso      1.000     Mg          1.417884  
         Mg3       1.0000    0.75266   0.24734   0.25000   Biso      1.000     Mg          1.417884  
         Mg4       1.0000    0.49898   0.98216   0.69429   Biso      1.000     Mg          1.449919  
         Mg5       1.0000    0.01784   0.50102   0.80571   Biso      1.000     Mg          1.449918  
         Mg6       1.0000    0.50102   0.01784   0.30571   Biso      1.000     Mg          1.449918  
         O1        1.0000    0.32995   0.67267   0.67989   Biso      1.000     O          -0.643018           
         O2        1.0000    0.51045   0.81207   0.66087   Biso      1.000     O          -0.720805           
         O3        1.0000    0.18121   0.85533   0.68491   Biso      1.000     O          -0.623228           
         O4        1.0000    0.33825   0.95715   0.63217   Biso      1.000     O          -0.707172           
         O5        1.0000    0.08395   0.59367   0.72367   Biso      1.000     O          -0.727054           
         O6        1.0000    0.99443   0.38707   0.71549   Biso      1.000     O          -0.648308           
         O7        1.0000    0.32733   0.67005   0.82011   Biso      1.000     O          -0.643018           
         O8        1.0000    0.18793   0.48955   0.83913   Biso      1.000     O          -0.720805           
         O9        1.0000    0.14467   0.81879   0.81509   Biso      1.000     O          -0.623228           
         O10       1.0000    0.04285   0.66175   0.86783   Biso      1.000     O          -0.707172           
         O11       1.0000    0.59367   0.08395   0.22367   Biso      1.000     O          -0.727054           
         O12       1.0000    0.67005   0.32733   0.32011   Biso      1.000     O          -0.643018           
         O13       1.0000    0.61293   0.00557   0.78451   Biso      1.000     O          -0.648308           
         O14       1.0000    0.48955   0.18793   0.33913   Biso      1.000     O          -0.720805           
         O15       1.0000    0.81879   0.14467   0.31509   Biso      1.000     O          -0.623228           
         O16       1.0000    0.66175   0.04285   0.36783   Biso      1.000     O          -0.707172           
         O17       1.0000    0.91605   0.40633   0.27633   Biso      1.000     O          -0.727054           
         O18       1.0000    0.00557   0.61293   0.28451   Biso      1.000     O          -0.648308           
         O19       1.0000    0.67267   0.32995   0.17989   Biso      1.000     O          -0.643019           
         O20       1.0000    0.81207   0.51045   0.16087   Biso      1.000     O          -0.720805           
         O21       1.0000    0.85533   0.18121   0.18491   Biso      1.000     O          -0.623228           
         O22       1.0000    0.95715   0.33825   0.13217   Biso      1.000     O          -0.707172           
         O23       1.0000    0.38707   0.99443   0.21549   Biso      1.000     O          -0.648308           
         O24       1.0000    0.40633   0.91605   0.77633   Biso      1.000     O          -0.727054 