
##########################################################################
#               Crystallographic Information Format file
#               Produced by PyCifRW module
#
#  This is a CIF file.  CIF has been adopted by the International
#  Union of Crystallography as the standard for data archiving and
#  transmission.
#
#  For information on this file format, follow the CIF links at
#  http://www.iucr.org
##########################################################################

data_image0

_cell_length_a                          11.2577
_cell_length_b                          11.2577
_cell_length_c                          20.946
_cell_angle_alpha                       95.8822
_cell_angle_beta                        95.8822
_cell_angle_gamma                       106.478
_symmetry_space_group_name_H-M          'P 1'
_symmetry_int_tables_number             1
loop_
  _symmetry_equiv_pos_as_xyz
         'x, y, z' 
loop_
  _atom_site_label
  _atom_site_occupancy
  _atom_site_fract_x
  _atom_site_fract_y
  _atom_site_fract_z
  _atom_site_thermal_displace_type
  _atom_site_B_iso_or_equiv
  _atom_site_type_symbol
  _atom_site_charge
         C1        1.0000    0.94690   0.12630   0.09440   Biso      1.000     C          -0.027972000000000004         
         C2        1.0000    0.43970   0.98850   0.98210   Biso      1.000     C          0.087702  
         C3        1.0000    0.70690   0.42350   0.14960   Biso      1.000     C          0.6635909999999999  
         C4        1.0000    0.44460   0.45100   0.98940   Biso      1.000     C          0.081961  
         C5        1.0000    0.63890   0.53830   0.06380   Biso      1.000     C          -0.176439           
         C6        1.0000    0.61380   0.43520   0.09500   Biso      1.000     C          -0.023053           
         C7        1.0000    0.50290   0.33890   0.07420   Biso      1.000     C          -0.113022           
         C8        1.0000    0.42010   0.34450   0.02240   Biso      1.000     C          -0.156247           
         C9        1.0000    0.91490   0.22110   0.14050   Biso      1.000     C          0.650978  
         C10       1.0000    0.05400   0.09040   0.93420   Biso      1.000     C          -0.156814           
         C11       1.0000    0.92470   0.00230   0.10810   Biso      1.000     C          -0.10762000000000001          
         C12       1.0000    0.57990   0.65550   0.97760   Biso      1.000     C          -0.156253           
         C13       1.0000    0.99220   0.15620   0.03880   Biso      1.000     C          -0.17366199999999998          
         C14       1.0000    0.01250   0.06190   0.99220   Biso      1.000     C          0.084788  
         C15       1.0000    0.95810   0.51110   0.30910   Biso      1.000     C          0.6193770000000001  
         C16       1.0000    0.98900   0.33900   0.51750   Biso      1.000     C          -0.135188           
         C17       1.0000    0.99390   0.64530   0.41670   Biso      1.000     C          -0.11662  
         C18       1.0000    0.97220   0.52560   0.38230   Biso      1.000     C          -0.007751999999999999         
         C19       1.0000    0.96860   0.42620   0.41430   Biso      1.000     C          -0.149134           
         C20       1.0000    0.98850   0.43970   0.48210   Biso      1.000     C          0.087701  
         C21       1.0000    0.57650   0.29310   0.35040   Biso      1.000     C          0.6635909999999999  
         C22       1.0000    0.54900   0.55540   0.51060   Biso      1.000     C          0.08196200000000001           
         C23       1.0000    0.46170   0.36110   0.43620   Biso      1.000     C          -0.176439           
         C24       1.0000    0.56480   0.38620   0.40500   Biso      1.000     C          -0.023053           
         C25       1.0000    0.42620   0.96860   0.91430   Biso      1.000     C          -0.149153           
         C26       1.0000    0.66110   0.49710   0.42580   Biso      1.000     C          -0.113022           
         C27       1.0000    0.52560   0.97220   0.88230   Biso      1.000     C          -0.007735           
         C28       1.0000    0.33900   0.98900   0.01750   Biso      1.000     C          -0.135186           
         C29       1.0000    0.07530   0.99770   0.89190   Biso      1.000     C          -0.107619           
         C30       1.0000    0.05310   0.87370   0.90560   Biso      1.000     C          -0.027973           
         C31       1.0000    0.00780   0.84380   0.96120   Biso      1.000     C          -0.17366199999999998          
         C32       1.0000    0.98750   0.93810   0.00780   Biso      1.000     C          0.084787  
         C33       1.0000    0.04190   0.48890   0.69090   Biso      1.000     C          0.6193770000000001  
         C34       1.0000    0.01100   0.66100   0.48250   Biso      1.000     C          -0.135164           
         C35       1.0000    0.00610   0.35470   0.58330   Biso      1.000     C          -0.116597           
         C36       1.0000    0.02780   0.47440   0.61770   Biso      1.000     C          -0.0077540000000000005        
         C37       1.0000    0.03140   0.57380   0.58570   Biso      1.000     C          -0.149134           
         C38       1.0000    0.01150   0.56030   0.51790   Biso      1.000     C          0.087699  
         C39       1.0000    0.42350   0.70690   0.64960   Biso      1.000     C          0.6635909999999999  
         C40       1.0000    0.45100   0.44460   0.48940   Biso      1.000     C          0.081965  
         C41       1.0000    0.53830   0.63890   0.56380   Biso      1.000     C          -0.17643699999999998          
         C42       1.0000    0.43520   0.61380   0.59500   Biso      1.000     C          -0.023053           
         C43       1.0000    0.33890   0.50290   0.57420   Biso      1.000     C          -0.113022           
         C44       1.0000    0.34450   0.42010   0.52240   Biso      1.000     C          -0.156247           
         C45       1.0000    0.22110   0.91490   0.64050   Biso      1.000     C          0.650978  
         C46       1.0000    0.09040   0.05400   0.43420   Biso      1.000     C          -0.156814           
         C47       1.0000    0.00230   0.92470   0.60810   Biso      1.000     C          -0.107619           
         C48       1.0000    0.12630   0.94690   0.59440   Biso      1.000     C          -0.027974000000000002         
         C49       1.0000    0.15620   0.99220   0.53880   Biso      1.000     C          -0.17366199999999998          
         C50       1.0000    0.06190   0.01250   0.49220   Biso      1.000     C          0.084788  
         C51       1.0000    0.51110   0.95810   0.80910   Biso      1.000     C          0.619376  
         C52       1.0000    0.64530   0.99390   0.91670   Biso      1.000     C          -0.116621           
         C53       1.0000    0.65550   0.57990   0.47760   Biso      1.000     C          -0.156247           
         C54       1.0000    0.77890   0.08510   0.35950   Biso      1.000     C          0.650978  
         C55       1.0000    0.90960   0.94600   0.56580   Biso      1.000     C          -0.156814           
         C56       1.0000    0.29310   0.57650   0.85040   Biso      1.000     C          0.6635909999999999  
         C57       1.0000    0.55540   0.54900   0.01060   Biso      1.000     C          0.081967  
         C58       1.0000    0.36110   0.46170   0.93620   Biso      1.000     C          -0.17643699999999998          
         C59       1.0000    0.38620   0.56480   0.90500   Biso      1.000     C          -0.023053999999999998         
         C60       1.0000    0.49710   0.66110   0.92580   Biso      1.000     C          -0.113017           
         C61       1.0000    0.94600   0.90960   0.06580   Biso      1.000     C          -0.156813           
         C62       1.0000    0.56030   0.01150   0.01790   Biso      1.000     C          0.087701  
         C63       1.0000    0.57380   0.03140   0.08570   Biso      1.000     C          -0.149153           
         C64       1.0000    0.08510   0.77890   0.85950   Biso      1.000     C          0.650978  
         C65       1.0000    0.35470   0.00610   0.08330   Biso      1.000     C          -0.116599           
         C66       1.0000    0.66100   0.01100   0.98250   Biso      1.000     C          -0.135163           
         C67       1.0000    0.48890   0.04190   0.19090   Biso      1.000     C          0.619376  
         C68       1.0000    0.93810   0.98750   0.50780   Biso      1.000     C          0.084789  
         C69       1.0000    0.47440   0.02780   0.11770   Biso      1.000     C          -0.007736           
         C70       1.0000    0.87370   0.05310   0.40560   Biso      1.000     C          -0.027972000000000004         
         C71       1.0000    0.99770   0.07530   0.39190   Biso      1.000     C          -0.10762000000000001          
         C72       1.0000    0.84380   0.00780   0.46120   Biso      1.000     C          -0.173663           
         H1        1.0000    0.01070   0.23850   0.03040   Biso      1.000     H          0.130737  
         H2        1.0000    0.97720   0.26000   0.49500   Biso      1.000     H          0.10203200000000001           
         H3        1.0000    0.99650   0.71330   0.39460   Biso      1.000     H          0.121643  
         H4        1.0000    0.95270   0.34730   0.39080   Biso      1.000     H          0.125468  
         H5        1.0000    0.39690   0.28770   0.42230   Biso      1.000     H          0.11785799999999999           
         H6        1.0000    0.73080   0.51540   0.40410   Biso      1.000     H          0.10667   
         H7        1.0000    0.82900   0.93240   0.57640   Biso      1.000     H          0.12340799999999999           
         H8        1.0000    0.89510   0.98210   0.14670   Biso      1.000     H          0.12254300000000001           
         H9        1.0000    0.76150   0.98930   0.46960   Biso      1.000     H          0.130737  
         H10       1.0000    0.74000   0.02280   0.00500   Biso      1.000     H          0.10203   
         H11       1.0000    0.28670   0.00350   0.10540   Biso      1.000     H          0.12164200000000001           
         H12       1.0000    0.65270   0.04730   0.10920   Biso      1.000     H          0.125469  
         H13       1.0000    0.72170   0.65230   0.49100   Biso      1.000     H          0.11313800000000002           
         H14       1.0000    0.01790   0.10490   0.35330   Biso      1.000     H          0.12254300000000001           
         H15       1.0000    0.34770   0.27830   0.00900   Biso      1.000     H          0.11313800000000002           
         H16       1.0000    0.48460   0.26920   0.09590   Biso      1.000     H          0.10667   
         H17       1.0000    0.28770   0.39690   0.92230   Biso      1.000     H          0.11785799999999999           
         H18       1.0000    0.51540   0.73080   0.90410   Biso      1.000     H          0.106669  
         H19       1.0000    0.65230   0.72170   0.99100   Biso      1.000     H          0.11313800000000002           
         H20       1.0000    0.93240   0.82900   0.07640   Biso      1.000     H          0.12340699999999999           
         H21       1.0000    0.10490   0.01790   0.85330   Biso      1.000     H          0.12254300000000001           
         H22       1.0000    0.98930   0.76150   0.96960   Biso      1.000     H          0.130737  
         H23       1.0000    0.02280   0.74000   0.50500   Biso      1.000     H          0.10203   
         H24       1.0000    0.00350   0.28670   0.60540   Biso      1.000     H          0.12164100000000001           
         H25       1.0000    0.06760   0.17100   0.92360   Biso      1.000     H          0.12340699999999999           
         H26       1.0000    0.04730   0.65270   0.60920   Biso      1.000     H          0.125468  
         H27       1.0000    0.26920   0.48460   0.59590   Biso      1.000     H          0.10667   
         H28       1.0000    0.27830   0.34770   0.50900   Biso      1.000     H          0.11313800000000002           
         H29       1.0000    0.17100   0.06760   0.42360   Biso      1.000     H          0.12340699999999999           
         H30       1.0000    0.98210   0.89510   0.64670   Biso      1.000     H          0.12254300000000001           
         H31       1.0000    0.23850   0.01070   0.53040   Biso      1.000     H          0.130737  
         H32       1.0000    0.71330   0.99650   0.89460   Biso      1.000     H          0.121643  
         H33       1.0000    0.34730   0.95270   0.89080   Biso      1.000     H          0.125469  
         H34       1.0000    0.71230   0.60310   0.07770   Biso      1.000     H          0.11785799999999999           
         H35       1.0000    0.60310   0.71230   0.57770   Biso      1.000     H          0.11785799999999999           
         H36       1.0000    0.26000   0.97720   0.99500   Biso      1.000     H          0.102031  
         Mg1       1.0000    0.50708   0.02234   0.30786   Biso      1.000     Mg          1.443401  
         Mg2       1.0000    0.24761   0.75239   0.75000   Biso      1.000     Mg          1.415945  
         Mg3       1.0000    0.75239   0.24761   0.25000   Biso      1.000     Mg          1.415945  
         Mg4       1.0000    0.02234   0.50708   0.80786   Biso      1.000     Mg          1.443401  
         Mg5       1.0000    0.49292   0.97766   0.69214   Biso      1.000     Mg          1.4434    
         Mg6       1.0000    0.97766   0.49292   0.19214   Biso      1.000     Mg          1.443401  
         O1        1.0000    0.99970   0.39350   0.71757   Biso      1.000     O          -0.646854           
         O2        1.0000    0.08680   0.59640   0.72357   Biso      1.000     O          -0.7148720000000001           
         O3        1.0000    0.14680   0.82000   0.81590   Biso      1.000     O          -0.616021           
         O4        1.0000    0.04740   0.66620   0.86900   Biso      1.000     O          -0.721182           
         O5        1.0000    0.50760   0.80980   0.65960   Biso      1.000     O          -0.720603           
         O6        1.0000    0.33140   0.67400   0.67934   Biso      1.000     O          -0.640235           
         O7        1.0000    0.60650   0.00030   0.78243   Biso      1.000     O          -0.646854           
         O8        1.0000    0.40360   0.91320   0.77643   Biso      1.000     O          -0.7148720000000001           
         O9        1.0000    0.18000   0.85320   0.68410   Biso      1.000     O          -0.6160220000000001           
         O10       1.0000    0.33380   0.95260   0.63100   Biso      1.000     O          -0.7211810000000001           
         O11       1.0000    0.80980   0.50760   0.15960   Biso      1.000     O          -0.7206020000000001           
         O12       1.0000    0.00030   0.60650   0.28243   Biso      1.000     O          -0.646854           
         O13       1.0000    0.32600   0.66860   0.82066   Biso      1.000     O          -0.640235           
         O14       1.0000    0.91320   0.40360   0.27643   Biso      1.000     O          -0.7148720000000001           
         O15       1.0000    0.85320   0.18000   0.18410   Biso      1.000     O          -0.616021           
         O16       1.0000    0.95260   0.33380   0.13100   Biso      1.000     O          -0.721182           
         O17       1.0000    0.49240   0.19020   0.34040   Biso      1.000     O          -0.7206020000000001           
         O18       1.0000    0.66860   0.32600   0.32066   Biso      1.000     O          -0.640235           
         O19       1.0000    0.39350   0.99970   0.21757   Biso      1.000     O          -0.646854           
         O20       1.0000    0.59640   0.08680   0.22357   Biso      1.000     O          -0.714871           
         O21       1.0000    0.82000   0.14680   0.31590   Biso      1.000     O          -0.6160220000000001           
         O22       1.0000    0.66620   0.04740   0.36900   Biso      1.000     O          -0.7211810000000001           
         O23       1.0000    0.67400   0.33140   0.17934   Biso      1.000     O          -0.640235           
         O24       1.0000    0.19020   0.49240   0.84040   Biso      1.000     O          -0.7206020000000001 