
##########################################################################
#               Crystallographic Information Format file
#               Produced by PyCifRW module
#
#  This is a CIF file.  CIF has been adopted by the International
#  Union of Crystallography as the standard for data archiving and
#  transmission.
#
#  For information on this file format, follow the CIF links at
#  http://www.iucr.org
##########################################################################

data_image0

_cell_length_a                          8.0173
_cell_length_b                          15.5052
_cell_length_c                          18.3232
_cell_angle_alpha                       74.6311
_cell_angle_beta                        77.3629
_cell_angle_gamma                       75.0168
_symmetry_space_group_name_H-M          'P 1'
_symmetry_int_tables_number             1
loop_
  _symmetry_equiv_pos_as_xyz
         'x, y, z' 
loop_
  _atom_site_label
  _atom_site_occupancy
  _atom_site_fract_x
  _atom_site_fract_y
  _atom_site_fract_z
  _atom_site_thermal_displace_type
  _atom_site_B_iso_or_equiv
  _atom_site_type_symbol
  _atom_site_charge
         C1        1.0000    0.19333   0.52114   0.85660   Biso      1.000     C          -0.11691199999999999          
         C2        1.0000    0.39424   0.96912   0.24880   Biso      1.000     C          -0.108223           
         C3        1.0000    0.46600   0.95380   0.31480   Biso      1.000     C          -0.055434000000000004         
         C4        1.0000    0.42893   0.02114   0.35660   Biso      1.000     C          -0.11581099999999998          
         C5        1.0000    0.31931   0.10378   0.33220   Biso      1.000     C          -0.017161000000000003         
         C6        1.0000    0.24544   0.11942   0.26650   Biso      1.000     C          -0.133775           
         C7        1.0000    0.28432   0.05176   0.22440   Biso      1.000     C          -0.015909           
         C8        1.0000    0.41453   0.63144   0.48290   Biso      1.000     C          0.564267  
         C9        1.0000    0.20699   0.06882   0.15300   Biso      1.000     C          0.599691  
         C10       1.0000    0.24972   0.70946   0.56030   Biso      1.000     C          0.5970489999999999  
         C11       1.0000    0.42881   0.43118   0.34700   Biso      1.000     C          0.599759  
         C12       1.0000    0.61216   0.53088   0.25120   Biso      1.000     C          -0.10844300000000001          
         C13       1.0000    0.73460   0.54620   0.18520   Biso      1.000     C          -0.057045000000000005         
         C14       1.0000    0.80667   0.47886   0.14340   Biso      1.000     C          -0.116025           
         C15       1.0000    0.75529   0.39622   0.16780   Biso      1.000     C          -0.017894           
         C16       1.0000    0.63136   0.38058   0.23350   Biso      1.000     C          -0.12858  
         C17       1.0000    0.56048   0.44824   0.27560   Biso      1.000     C          -0.017165           
         C18       1.0000    0.84076   0.32228   0.12420   Biso      1.000     C          0.6135510000000001  
         C19       1.0000    0.28724   0.17772   0.37580   Biso      1.000     C          0.60642   
         C20       1.0000    0.48052   0.20946   0.06030   Biso      1.000     C          0.594733  
         C21       1.0000    0.47113   0.13144   0.98290   Biso      1.000     C          0.561553  
         C22       1.0000    0.71276   0.82228   0.62420   Biso      1.000     C          0.613084  
         C23       1.0000    0.79301   0.93118   0.84700   Biso      1.000     C          0.599929  
         C24       1.0000    0.60576   0.03088   0.75120   Biso      1.000     C          -0.108386           
         C25       1.0000    0.53400   0.04620   0.68520   Biso      1.000     C          -0.05520599999999999          
         C26       1.0000    0.57107   0.97886   0.64340   Biso      1.000     C          -0.11599300000000001          
         C27       1.0000    0.68069   0.89622   0.66780   Biso      1.000     C          -0.019078           
         C28       1.0000    0.75456   0.88058   0.73350   Biso      1.000     C          -0.133485           
         C29       1.0000    0.71568   0.94824   0.77560   Biso      1.000     C          -0.016744           
         C30       1.0000    0.58547   0.36856   0.51710   Biso      1.000     C          0.5610850000000001  
         C31       1.0000    0.75028   0.29054   0.43970   Biso      1.000     C          0.589156  
         C32       1.0000    0.15924   0.67772   0.87580   Biso      1.000     C          0.613498  
         C33       1.0000    0.57119   0.56882   0.65300   Biso      1.000     C          0.601657  
         C34       1.0000    0.38784   0.46912   0.74880   Biso      1.000     C          -0.10945799999999999          
         C35       1.0000    0.26540   0.45380   0.81480   Biso      1.000     C          -0.05778099999999999          
         C36       1.0000    0.24471   0.60378   0.83220   Biso      1.000     C          -0.018505           
         C37       1.0000    0.36864   0.61942   0.76650   Biso      1.000     C          -0.12900899999999998          
         C38       1.0000    0.43952   0.55176   0.72440   Biso      1.000     C          -0.017986000000000002         
         C39       1.0000    0.52887   0.86856   0.01710   Biso      1.000     C          0.561616  
         C40       1.0000    0.51948   0.79054   0.93970   Biso      1.000     C          0.594877  
         Co1       1.0000    0.14522   0.87324   0.89760   Biso      1.000     Co          0.934207  
         Co2       1.0000    0.20637   0.47806   0.49354   Biso      1.000     Co          0.9455120000000001  
         Co3       1.0000    0.82203   0.97806   0.99354   Biso      1.000     Co          0.949773  
         Co4       1.0000    0.88274   0.74885   0.98683   Biso      1.000     Co          0.998662  
         Co5       1.0000    0.91606   0.62676   0.60240   Biso      1.000     Co          0.9343969999999999  
         Co6       1.0000    0.79363   0.52194   0.50646   Biso      1.000     Co          0.9435129999999999  
         Co7       1.0000    0.61842   0.75115   0.51317   Biso      1.000     Co          0.998365  
         Co8       1.0000    0.85478   0.12676   0.10240   Biso      1.000     Co          0.933119  
         Co9       1.0000    0.17797   0.02194   0.00646   Biso      1.000     Co          0.9496370000000001  
         Co10      1.0000    0.11726   0.25115   0.01317   Biso      1.000     Co          0.999024  
         Co11      1.0000    0.08394   0.37324   0.39760   Biso      1.000     Co          0.791078  
         Co12      1.0000    0.38158   0.24885   0.48683   Biso      1.000     Co          0.992976  
         H1        1.0000    0.56510   0.57630   0.27890   Biso      1.000     H          0.132613  
         H2        1.0000    0.88880   0.48940   0.09940   Biso      1.000     H          0.13679000000000002           
         H3        1.0000    0.59590   0.32510   0.24930   Biso      1.000     H          0.12213199999999999           
         H4        1.0000    0.51470   0.94400   0.08520   Biso      1.000     H          0.34034699999999996           
         H5        1.0000    0.67190   0.69160   0.89500   Biso      1.000     H          0.364174  
         H6        1.0000    0.90730   0.22500   0.36580   Biso      1.000     H          0.361683  
         H7        1.0000    0.04520   0.05500   0.87860   Biso      1.000     H          0.403258  
         H8        1.0000    0.04240   0.82180   0.04760   Biso      1.000     H          0.406008  
         H9        1.0000    0.91180   0.67820   0.45240   Biso      1.000     H          0.406812  
         H10       1.0000    0.02120   0.55500   0.37860   Biso      1.000     H          0.404111  
         H11       1.0000    0.50190   0.72500   0.86580   Biso      1.000     H          0.362571  
         H12       1.0000    0.97880   0.44500   0.62140   Biso      1.000     H          0.403802  
         H13       1.0000    0.64260   0.85840   0.10020   Biso      1.000     H          0.350551  
         H14       1.0000    0.25850   0.80840   0.60500   Biso      1.000     H          0.366425  
         H15       1.0000    0.74150   0.19160   0.39500   Biso      1.000     H          0.365325  
         H16       1.0000    0.45610   0.44400   0.58520   Biso      1.000     H          0.339581  
         H17       1.0000    0.39880   0.35840   0.60020   Biso      1.000     H          0.35112600000000005           
         H18       1.0000    0.82970   0.82510   0.74930   Biso      1.000     H          0.124299  
         H19       1.0000    0.52240   0.98940   0.59940   Biso      1.000     H          0.136475  
         H20       1.0000    0.57970   0.07630   0.77890   Biso      1.000     H          0.131802  
         H21       1.0000    0.09270   0.77500   0.63420   Biso      1.000     H          0.36258   
         H22       1.0000    0.43490   0.42370   0.72110   Biso      1.000     H          0.13303299999999998           
         H23       1.0000    0.11120   0.51060   0.90060   Biso      1.000     H          0.136801  
         H24       1.0000    0.40410   0.67490   0.75070   Biso      1.000     H          0.122181  
         H25       1.0000    0.35740   0.14160   0.89980   Biso      1.000     H          0.35065999999999997           
         H26       1.0000    0.08820   0.32180   0.54760   Biso      1.000     H          0.404113  
         H27       1.0000    0.32810   0.30840   0.10500   Biso      1.000     H          0.364298  
         H28       1.0000    0.49810   0.27500   0.13420   Biso      1.000     H          0.362545  
         H29       1.0000    0.95480   0.94500   0.12140   Biso      1.000     H          0.402957  
         H30       1.0000    0.95760   0.17820   0.95240   Biso      1.000     H          0.406139  
         H31       1.0000    0.42030   0.92370   0.22110   Biso      1.000     H          0.13197899999999999           
         H32       1.0000    0.47760   0.01060   0.40060   Biso      1.000     H          0.13684100000000002           
         H33       1.0000    0.17030   0.17490   0.25070   Biso      1.000     H          0.125007  
         H34       1.0000    0.60120   0.64160   0.39980   Biso      1.000     H          0.351163  
         H35       1.0000    0.48530   0.05600   0.91480   Biso      1.000     H          0.340476  
         H36       1.0000    0.54390   0.55600   0.41480   Biso      1.000     H          0.339996  
         N1        1.0000    0.62645   0.09915   0.00395   Biso      1.000     N          -0.346014           
         N2        1.0000    0.63255   0.15024   0.05626   Biso      1.000     N          -0.380277           
         N3        1.0000    0.37365   0.20115   0.01555   Biso      1.000     N          -0.578455           
         N4        1.0000    0.42933   0.27194   0.10540   Biso      1.000     N          -0.733215           
         N5        1.0000    0.80667   0.22806   0.39460   Biso      1.000     N          -0.745108           
         N6        1.0000    0.72955   0.40085   0.49605   Biso      1.000     N          -0.348833           
         N7        1.0000    0.83905   0.34976   0.44374   Biso      1.000     N          -0.340147           
         N8        1.0000    0.59035   0.29885   0.48445   Biso      1.000     N          -0.577685           
         N9        1.0000    0.56700   0.59579   0.43721   Biso      1.000     N          -0.721366           
         N10       1.0000    0.43300   0.40421   0.56279   Biso      1.000     N          -0.722377           
         N11       1.0000    0.40000   0.09579   0.93721   Biso      1.000     N          -0.721158           
         N12       1.0000    0.19333   0.77194   0.60540   Biso      1.000     N          -0.7364569999999999           
         N13       1.0000    0.62635   0.79885   0.98445   Biso      1.000     N          -0.578371           
         N14       1.0000    0.16095   0.65024   0.55626   Biso      1.000     N          -0.380902           
         N15       1.0000    0.27045   0.59915   0.50395   Biso      1.000     N          -0.347285           
         N16       1.0000    0.60000   0.90421   0.06279   Biso      1.000     N          -0.7212569999999999           
         N17       1.0000    0.57067   0.72806   0.89460   Biso      1.000     N          -0.733111           
         N18       1.0000    0.36745   0.84976   0.94374   Biso      1.000     N          -0.38003600000000004          
         N19       1.0000    0.37355   0.90085   0.99605   Biso      1.000     N          -0.346149           
         N20       1.0000    0.40965   0.70115   0.51555   Biso      1.000     N          -0.578731           
         O1        1.0000    0.98486   0.49635   0.57693   Biso      1.000     O          -0.872448           
         O2        1.0000    0.60310   0.51622   0.60778   Biso      1.000     O          -0.5594399999999999           
         O3        1.0000    0.63908   0.63675   0.64189   Biso      1.000     O          -0.598195           
         O4        1.0000    0.23202   0.74321   0.86615   Biso      1.000     O          -0.570551           
         O5        1.0000    0.01583   0.66769   0.91945   Biso      1.000     O          -0.545147           
         O6        1.0000    0.06504   0.37207   0.78245   Biso      1.000     O          -0.607668           
         O7        1.0000    0.08305   0.35040   0.91590   Biso      1.000     O          -0.64642  
         O8        1.0000    0.32281   0.27746   0.83232   Biso      1.000     O          -0.597188           
         O9        1.0000    0.72710   0.98378   0.89222   Biso      1.000     O          -0.56028  
         O10       1.0000    0.94186   0.99635   0.07693   Biso      1.000     O          -0.871776           
         O11       1.0000    0.82621   0.65797   0.49661   Biso      1.000     O          -0.865301           
         O12       1.0000    0.91772   0.86325   0.85811   Biso      1.000     O          -0.597259           
         O13       1.0000    0.84138   0.75679   0.63385   Biso      1.000     O          -0.569155           
         O14       1.0000    0.60297   0.83231   0.58055   Biso      1.000     O          -0.545295           
         O15       1.0000    0.21956   0.12793   0.71755   Biso      1.000     O          -0.608161           
         O16       1.0000    0.34935   0.14960   0.58410   Biso      1.000     O          -0.645949           
         O17       1.0000    0.43259   0.22254   0.66768   Biso      1.000     O          -0.596811           
         O18       1.0000    0.01921   0.15797   0.99661   Biso      1.000     O          -0.865909           
         O19       1.0000    0.56741   0.77746   0.33232   Biso      1.000     O          -0.596571           
         O20       1.0000    0.39703   0.16769   0.41945   Biso      1.000     O          -0.5423939999999999           
         O21       1.0000    0.78044   0.87207   0.28245   Biso      1.000     O          -0.6071350000000001           
         O22       1.0000    0.17379   0.34203   0.50339   Biso      1.000     O          -0.8484389999999999           
         O23       1.0000    0.39690   0.48378   0.39222   Biso      1.000     O          -0.557054           
         O24       1.0000    0.36092   0.36325   0.35811   Biso      1.000     O          -0.565441           
         O25       1.0000    0.76798   0.25679   0.13385   Biso      1.000     O          -0.5705140000000001           
         O26       1.0000    0.65065   0.85040   0.41590   Biso      1.000     O          -0.644682           
         O27       1.0000    0.93496   0.62793   0.21755   Biso      1.000     O          -0.6070979999999999           
         O28       1.0000    0.98417   0.33231   0.08055   Biso      1.000     O          -0.545111           
         O29       1.0000    0.67719   0.72254   0.16768   Biso      1.000     O          -0.597939           
         O30       1.0000    0.98079   0.84203   0.00339   Biso      1.000     O          -0.866116           
         O31       1.0000    0.05814   0.00365   0.92307   Biso      1.000     O          -0.871915           
         O32       1.0000    0.27290   0.01622   0.10778   Biso      1.000     O          -0.560187           
         O33       1.0000    0.08228   0.13675   0.14189   Biso      1.000     O          -0.597004           
         O34       1.0000    0.15862   0.24321   0.36615   Biso      1.000     O          -0.530977           
         O35       1.0000    0.91695   0.64960   0.08410   Biso      1.000     O          -0.646281           
         O36       1.0000    0.01514   0.50365   0.42307   Biso      1.000     O          -0.8318040000000001           
         S1        1.0000    0.81960   0.64570   0.16254   Biso      1.000     S          1.200123  
         S2        1.0000    0.62784   0.85430   0.33746   Biso      1.000     S          1.196561  
         S3        1.0000    0.18040   0.35430   0.83746   Biso      1.000     S          1.2002190000000001  
         S4        1.0000    0.37216   0.14570   0.66254   Biso      1.000     S          1.19681 