
##########################################################################
#               Crystallographic Information Format file
#               Produced by PyCifRW module
#
#  This is a CIF file.  CIF has been adopted by the International
#  Union of Crystallography as the standard for data archiving and
#  transmission.
#
#  For information on this file format, follow the CIF links at
#  http://www.iucr.org
##########################################################################

data_image0

_cell_length_a                          12.9879
_cell_length_b                          12.9879
_cell_length_c                          25.025
_cell_angle_alpha                       90
_cell_angle_beta                        90
_cell_angle_gamma                       90
_symmetry_space_group_name_H-M          'P 1'
_symmetry_int_tables_number             1
loop_
  _symmetry_equiv_pos_as_xyz
         'x, y, z' 
loop_
  _atom_site_label
  _atom_site_occupancy
  _atom_site_fract_x
  _atom_site_fract_y
  _atom_site_fract_z
  _atom_site_thermal_displace_type
  _atom_site_B_iso_or_equiv
  _atom_site_type_symbol
  _atom_site_charge
         C1        1.0000    0.40620   0.06910   0.70602   Biso      1.000     C          -0.205426           
         C2        1.0000    0.63640   0.98020   0.33895   Biso      1.000     C          -0.096935           
         C3        1.0000    0.75490   0.98980   0.41835   Biso      1.000     C          0.592828  
         C4        1.0000    0.09380   0.43090   0.79398   Biso      1.000     C          -0.205426           
         C5        1.0000    0.12420   0.32980   0.78460   Biso      1.000     C          -0.084323           
         C6        1.0000    0.19890   0.28210   0.81620   Biso      1.000     C          -0.086174           
         C7        1.0000    0.24070   0.33420   0.85920   Biso      1.000     C          -0.101783           
         C8        1.0000    0.71000   0.93290   0.37080   Biso      1.000     C          -0.021082           
         C9        1.0000    0.21000   0.43290   0.87080   Biso      1.000     C          -0.021078           
         C10       1.0000    0.25490   0.48980   0.91835   Biso      1.000     C          0.592828  
         C11       1.0000    0.40620   0.06910   0.29398   Biso      1.000     C          -0.205426           
         C12       1.0000    0.37580   0.17020   0.28460   Biso      1.000     C          -0.084323           
         C13       1.0000    0.30110   0.21790   0.31620   Biso      1.000     C          -0.086174           
         C14       1.0000    0.25930   0.16580   0.35920   Biso      1.000     C          -0.101783           
         C15       1.0000    0.29000   0.06710   0.37080   Biso      1.000     C          -0.021078           
         C16       1.0000    0.13640   0.48020   0.83895   Biso      1.000     C          -0.096936           
         C17       1.0000    0.36360   0.01980   0.33895   Biso      1.000     C          -0.096936           
         C18       1.0000    0.69890   0.78210   0.31620   Biso      1.000     C          -0.086175           
         C19       1.0000    0.59380   0.93090   0.29398   Biso      1.000     C          -0.205427           
         C20       1.0000    0.06910   0.59380   0.70602   Biso      1.000     C          -0.205426           
         C21       1.0000    0.17020   0.62420   0.71540   Biso      1.000     C          -0.084323           
         C22       1.0000    0.21790   0.69890   0.68380   Biso      1.000     C          -0.086174           
         C23       1.0000    0.16580   0.74070   0.64080   Biso      1.000     C          -0.101783           
         C24       1.0000    0.06710   0.71000   0.62920   Biso      1.000     C          -0.021078           
         C25       1.0000    0.01980   0.63640   0.66105   Biso      1.000     C          -0.096936           
         C26       1.0000    0.62420   0.82980   0.28460   Biso      1.000     C          -0.084323           
         C27       1.0000    0.01020   0.75490   0.58165   Biso      1.000     C          0.592828  
         C28       1.0000    0.67020   0.12420   0.21540   Biso      1.000     C          -0.084323           
         C29       1.0000    0.71790   0.19890   0.18380   Biso      1.000     C          -0.086174           
         C30       1.0000    0.66580   0.24070   0.14080   Biso      1.000     C          -0.101783           
         C31       1.0000    0.56710   0.21000   0.12920   Biso      1.000     C          -0.021078           
         C32       1.0000    0.51980   0.13640   0.16105   Biso      1.000     C          -0.096936           
         C33       1.0000    0.51020   0.25490   0.08165   Biso      1.000     C          0.592828  
         C34       1.0000    0.56910   0.09380   0.20602   Biso      1.000     C          -0.205426           
         C35       1.0000    0.24510   0.01020   0.41835   Biso      1.000     C          0.592828  
         C36       1.0000    0.90620   0.56910   0.79398   Biso      1.000     C          -0.205426           
         C37       1.0000    0.87580   0.67020   0.78460   Biso      1.000     C          -0.084323           
         C38       1.0000    0.93090   0.40620   0.29398   Biso      1.000     C          -0.205426           
         C39       1.0000    0.82980   0.37580   0.28460   Biso      1.000     C          -0.084323           
         C40       1.0000    0.78210   0.30110   0.31620   Biso      1.000     C          -0.086174           
         C41       1.0000    0.83420   0.25930   0.35920   Biso      1.000     C          -0.101783           
         C42       1.0000    0.93290   0.29000   0.37080   Biso      1.000     C          -0.021078           
         C43       1.0000    0.98020   0.36360   0.33895   Biso      1.000     C          -0.096936           
         C44       1.0000    0.51020   0.25490   0.91835   Biso      1.000     C          0.592828  
         C45       1.0000    0.98980   0.24510   0.41835   Biso      1.000     C          0.592828  
         C46       1.0000    0.32980   0.87580   0.78460   Biso      1.000     C          -0.084323           
         C47       1.0000    0.28210   0.80110   0.81620   Biso      1.000     C          -0.086174           
         C48       1.0000    0.33420   0.75930   0.85920   Biso      1.000     C          -0.101783           
         C49       1.0000    0.43290   0.79000   0.87080   Biso      1.000     C          -0.021078           
         C50       1.0000    0.48020   0.86360   0.83895   Biso      1.000     C          -0.096936           
         C51       1.0000    0.48980   0.74510   0.91835   Biso      1.000     C          0.592828  
         C52       1.0000    0.43090   0.90620   0.79398   Biso      1.000     C          -0.205426           
         C53       1.0000    0.51980   0.13640   0.83895   Biso      1.000     C          -0.096935           
         C54       1.0000    0.56710   0.21000   0.87080   Biso      1.000     C          -0.021082           
         C55       1.0000    0.66580   0.24070   0.85920   Biso      1.000     C          -0.101781           
         C56       1.0000    0.80110   0.71790   0.81620   Biso      1.000     C          -0.086174           
         C57       1.0000    0.75930   0.66580   0.85920   Biso      1.000     C          -0.101783           
         C58       1.0000    0.79000   0.56710   0.87080   Biso      1.000     C          -0.021078           
         C59       1.0000    0.86360   0.51980   0.83895   Biso      1.000     C          -0.096936           
         C60       1.0000    0.74510   0.51020   0.91835   Biso      1.000     C          0.592828  
         C61       1.0000    0.06910   0.59380   0.29398   Biso      1.000     C          -0.205426           
         C62       1.0000    0.17020   0.62420   0.28460   Biso      1.000     C          -0.084323           
         C63       1.0000    0.21790   0.69890   0.31620   Biso      1.000     C          -0.086174           
         C64       1.0000    0.16580   0.74070   0.35920   Biso      1.000     C          -0.101783           
         C65       1.0000    0.06710   0.71000   0.37080   Biso      1.000     C          -0.021078           
         C66       1.0000    0.01980   0.63640   0.33895   Biso      1.000     C          -0.096936           
         C67       1.0000    0.01020   0.75490   0.41835   Biso      1.000     C          0.592828  
         C68       1.0000    0.56910   0.09380   0.79398   Biso      1.000     C          -0.205426           
         C69       1.0000    0.67020   0.12420   0.78460   Biso      1.000     C          -0.084323           
         C70       1.0000    0.71790   0.19890   0.81620   Biso      1.000     C          -0.086173           
         C71       1.0000    0.48980   0.74510   0.08165   Biso      1.000     C          0.592828  
         C72       1.0000    0.48020   0.86360   0.16105   Biso      1.000     C          -0.096935           
         C73       1.0000    0.74070   0.83420   0.35920   Biso      1.000     C          -0.101779           
         C74       1.0000    0.71000   0.93290   0.62920   Biso      1.000     C          -0.021082           
         C75       1.0000    0.78210   0.30110   0.68380   Biso      1.000     C          -0.086174           
         C76       1.0000    0.24510   0.01020   0.58165   Biso      1.000     C          0.592828  
         C77       1.0000    0.82980   0.37580   0.71540   Biso      1.000     C          -0.084323           
         C78       1.0000    0.43290   0.79000   0.12920   Biso      1.000     C          -0.021082           
         C79       1.0000    0.93090   0.40620   0.70602   Biso      1.000     C          -0.205426           
         C80       1.0000    0.87580   0.67020   0.21540   Biso      1.000     C          -0.084323           
         C81       1.0000    0.80110   0.71790   0.18380   Biso      1.000     C          -0.086174           
         C82       1.0000    0.25490   0.48980   0.08165   Biso      1.000     C          0.592828  
         C83       1.0000    0.75930   0.66580   0.14080   Biso      1.000     C          -0.101783           
         C84       1.0000    0.13640   0.48020   0.16105   Biso      1.000     C          -0.096935           
         C85       1.0000    0.21000   0.43290   0.12920   Biso      1.000     C          -0.021082           
         C86       1.0000    0.36360   0.01980   0.66105   Biso      1.000     C          -0.096935           
         C87       1.0000    0.24070   0.33420   0.14080   Biso      1.000     C          -0.101781           
         C88       1.0000    0.86360   0.51980   0.16105   Biso      1.000     C          -0.096936           
         C89       1.0000    0.19890   0.28210   0.18380   Biso      1.000     C          -0.086173           
         C90       1.0000    0.74510   0.51020   0.08165   Biso      1.000     C          0.592828  
         C91       1.0000    0.12420   0.32980   0.21540   Biso      1.000     C          -0.084323           
         C92       1.0000    0.09380   0.43090   0.20602   Biso      1.000     C          -0.205426           
         C93       1.0000    0.59380   0.93090   0.70602   Biso      1.000     C          -0.205426           
         C94       1.0000    0.62420   0.82980   0.71540   Biso      1.000     C          -0.084323           
         C95       1.0000    0.75490   0.98980   0.58165   Biso      1.000     C          0.592828  
         C96       1.0000    0.69890   0.78210   0.68380   Biso      1.000     C          -0.086175           
         C97       1.0000    0.63640   0.98020   0.66105   Biso      1.000     C          -0.096935           
         C98       1.0000    0.74070   0.83420   0.64080   Biso      1.000     C          -0.101779           
         C99       1.0000    0.79000   0.56710   0.12920   Biso      1.000     C          -0.021078           
         C100      1.0000    0.29000   0.06710   0.62920   Biso      1.000     C          -0.021082           
         C101      1.0000    0.90620   0.56910   0.20602   Biso      1.000     C          -0.205426           
         C102      1.0000    0.28210   0.80110   0.18380   Biso      1.000     C          -0.086175           
         C103      1.0000    0.37580   0.17020   0.71540   Biso      1.000     C          -0.084323           
         C104      1.0000    0.33420   0.75930   0.14080   Biso      1.000     C          -0.101779           
         C105      1.0000    0.83420   0.25930   0.64080   Biso      1.000     C          -0.101783           
         C106      1.0000    0.93290   0.29000   0.62920   Biso      1.000     C          -0.021078           
         C107      1.0000    0.32980   0.87580   0.21540   Biso      1.000     C          -0.084323           
         C108      1.0000    0.25930   0.16580   0.64080   Biso      1.000     C          -0.101781           
         C109      1.0000    0.30110   0.21790   0.68380   Biso      1.000     C          -0.086173           
         C110      1.0000    0.98020   0.36360   0.66105   Biso      1.000     C          -0.096936           
         C111      1.0000    0.98980   0.24510   0.58165   Biso      1.000     C          0.592828  
         C112      1.0000    0.43090   0.90620   0.20602   Biso      1.000     C          -0.205426           
         Cd1       1.0000    0.67497   0.38411   0.00000   Biso      1.000     Cd          1.064418  
         Cd2       1.0000    0.82503   0.11589   0.50000   Biso      1.000     Cd          1.064418  
         Cd3       1.0000    0.32503   0.61589   0.00000   Biso      1.000     Cd          1.064418  
         Cd4       1.0000    0.17497   0.88411   0.50000   Biso      1.000     Cd          1.064418  
         Cd5       1.0000    0.11589   0.17497   0.50000   Biso      1.000     Cd          1.064418  
         Cd6       1.0000    0.61589   0.67497   0.00000   Biso      1.000     Cd          1.064418  
         Cd7       1.0000    0.88411   0.82503   0.50000   Biso      1.000     Cd          1.064418  
         Cd8       1.0000    0.38411   0.32503   0.00000   Biso      1.000     Cd          1.064418  
         H1        1.0000    0.28450   0.72040   0.30840   Biso      1.000     H          0.110592  
         H2        1.0000    0.59420   0.79330   0.74340   Biso      1.000     H          0.111048  
         H3        1.0000    0.19790   0.79000   0.38040   Biso      1.000     H          0.107804  
         H4        1.0000    0.88540   0.45360   0.84750   Biso      1.000     H          0.111918  
         H5        1.0000    0.95360   0.61460   0.34750   Biso      1.000     H          0.111918  
         H6        1.0000    0.72040   0.71550   0.69160   Biso      1.000     H          0.110593  
         H7        1.0000    0.20670   0.59420   0.25660   Biso      1.000     H          0.111048  
         H8        1.0000    0.21000   0.19790   0.61960   Biso      1.000     H          0.107804  
         H9        1.0000    0.70670   0.09420   0.75660   Biso      1.000     H          0.111048  
         H10       1.0000    0.71000   0.69790   0.11960   Biso      1.000     H          0.107804  
         H11       1.0000    0.04640   0.38540   0.34750   Biso      1.000     H          0.111918  
         H12       1.0000    0.38540   0.95360   0.65250   Biso      1.000     H          0.111918  
         H13       1.0000    0.29330   0.90580   0.75660   Biso      1.000     H          0.111048  
         H14       1.0000    0.80210   0.21000   0.38040   Biso      1.000     H          0.107804  
         H15       1.0000    0.71550   0.27960   0.30840   Biso      1.000     H          0.110593  
         H16       1.0000    0.79330   0.40580   0.25660   Biso      1.000     H          0.111048  
         H17       1.0000    0.21550   0.77960   0.80840   Biso      1.000     H          0.110592  
         H18       1.0000    0.88540   0.45360   0.15250   Biso      1.000     H          0.111918  
         H19       1.0000    0.27960   0.28450   0.69160   Biso      1.000     H          0.110592  
         H20       1.0000    0.45360   0.11460   0.84750   Biso      1.000     H          0.111918  
         H21       1.0000    0.77960   0.78450   0.19160   Biso      1.000     H          0.110593  
         H22       1.0000    0.30210   0.71000   0.88040   Biso      1.000     H          0.107804  
         H23       1.0000    0.69790   0.29000   0.88040   Biso      1.000     H          0.107804  
         H24       1.0000    0.40580   0.20670   0.74340   Biso      1.000     H          0.111048  
         H25       1.0000    0.78450   0.22040   0.80840   Biso      1.000     H          0.110592  
         H26       1.0000    0.54640   0.88540   0.84750   Biso      1.000     H          0.111918  
         H27       1.0000    0.90580   0.70670   0.24340   Biso      1.000     H          0.111048  
         H28       1.0000    0.71000   0.69790   0.88040   Biso      1.000     H          0.107804  
         H29       1.0000    0.30210   0.71000   0.11960   Biso      1.000     H          0.107804  
         H30       1.0000    0.77960   0.78450   0.80840   Biso      1.000     H          0.110593  
         H31       1.0000    0.29000   0.30210   0.88040   Biso      1.000     H          0.107804  
         H32       1.0000    0.22040   0.21550   0.80840   Biso      1.000     H          0.110593  
         H33       1.0000    0.09420   0.29330   0.75660   Biso      1.000     H          0.111048  
         H34       1.0000    0.11460   0.54640   0.15250   Biso      1.000     H          0.111918  
         H35       1.0000    0.04640   0.38540   0.65250   Biso      1.000     H          0.111918  
         H36       1.0000    0.61460   0.04640   0.34750   Biso      1.000     H          0.111918  
         H37       1.0000    0.70670   0.09420   0.24340   Biso      1.000     H          0.111048  
         H38       1.0000    0.78450   0.22040   0.19160   Biso      1.000     H          0.110593  
         H39       1.0000    0.54640   0.88540   0.15250   Biso      1.000     H          0.111918  
         H40       1.0000    0.79000   0.80210   0.38040   Biso      1.000     H          0.107804  
         H41       1.0000    0.79000   0.80210   0.61960   Biso      1.000     H          0.107804  
         H42       1.0000    0.69790   0.29000   0.11960   Biso      1.000     H          0.107804  
         H43       1.0000    0.72040   0.71550   0.30840   Biso      1.000     H          0.110593  
         H44       1.0000    0.80210   0.21000   0.61960   Biso      1.000     H          0.107804  
         H45       1.0000    0.59420   0.79330   0.25660   Biso      1.000     H          0.111048  
         H46       1.0000    0.79330   0.40580   0.74340   Biso      1.000     H          0.111048  
         H47       1.0000    0.45360   0.11460   0.15250   Biso      1.000     H          0.111918  
         H48       1.0000    0.29000   0.30210   0.11960   Biso      1.000     H          0.107804  
         H49       1.0000    0.22040   0.21550   0.19160   Biso      1.000     H          0.110592  
         H50       1.0000    0.11460   0.54640   0.84750   Biso      1.000     H          0.111918  
         H51       1.0000    0.21000   0.19790   0.38040   Biso      1.000     H          0.107804  
         H52       1.0000    0.90580   0.70670   0.75660   Biso      1.000     H          0.111048  
         H53       1.0000    0.61460   0.04640   0.65250   Biso      1.000     H          0.111918  
         H54       1.0000    0.21550   0.77960   0.19160   Biso      1.000     H          0.110593  
         H55       1.0000    0.20670   0.59420   0.74340   Biso      1.000     H          0.111048  
         H56       1.0000    0.38540   0.95360   0.34750   Biso      1.000     H          0.111918  
         H57       1.0000    0.29330   0.90580   0.24340   Biso      1.000     H          0.111048  
         H58       1.0000    0.28450   0.72040   0.69160   Biso      1.000     H          0.110593  
         H59       1.0000    0.27960   0.28450   0.30840   Biso      1.000     H          0.110593  
         H60       1.0000    0.71550   0.27960   0.69160   Biso      1.000     H          0.110593  
         H61       1.0000    0.40580   0.20670   0.25660   Biso      1.000     H          0.111048  
         H62       1.0000    0.09420   0.29330   0.24340   Biso      1.000     H          0.111048  
         H63       1.0000    0.95360   0.61460   0.65250   Biso      1.000     H          0.111918  
         H64       1.0000    0.19790   0.79000   0.61960   Biso      1.000     H          0.107804  
         O1        1.0000    0.07450   0.28480   0.56846   Biso      1.000     O          -0.538243           
         O2        1.0000    0.04610   0.83280   0.55801   Biso      1.000     O          -0.597986           
         O3        1.0000    0.92550   0.71520   0.56846   Biso      1.000     O          -0.538243           
         O4        1.0000    0.45390   0.66720   0.94199   Biso      1.000     O          -0.597986           
         O5        1.0000    0.57450   0.78480   0.93154   Biso      1.000     O          -0.538243           
         O6        1.0000    0.45390   0.66720   0.05801   Biso      1.000     O          -0.597986           
         O7        1.0000    0.57450   0.78480   0.06846   Biso      1.000     O          -0.538243           
         O8        1.0000    0.95390   0.16720   0.55801   Biso      1.000     O          -0.597986           
         O9        1.0000    0.95390   0.16720   0.44199   Biso      1.000     O          -0.597986           
         O10       1.0000    0.33280   0.45390   0.05801   Biso      1.000     O          -0.597986           
         O11       1.0000    0.42550   0.21520   0.06846   Biso      1.000     O          -0.538243           
         O12       1.0000    0.16720   0.04610   0.44199   Biso      1.000     O          -0.597986           
         O13       1.0000    0.28480   0.92550   0.43154   Biso      1.000     O          -0.538243           
         O14       1.0000    0.78480   0.42550   0.93154   Biso      1.000     O          -0.538243           
         O15       1.0000    0.66720   0.54610   0.94199   Biso      1.000     O          -0.597986           
         O16       1.0000    0.71520   0.07450   0.56846   Biso      1.000     O          -0.538243           
         O17       1.0000    0.83280   0.95390   0.55801   Biso      1.000     O          -0.597986           
         O18       1.0000    0.66720   0.54610   0.05801   Biso      1.000     O          -0.597986           
         O19       1.0000    0.78480   0.42550   0.06846   Biso      1.000     O          -0.538243           
         O20       1.0000    0.33280   0.45390   0.94199   Biso      1.000     O          -0.597986           
         O21       1.0000    0.07450   0.28480   0.43154   Biso      1.000     O          -0.538243           
         O22       1.0000    0.21520   0.57450   0.93154   Biso      1.000     O          -0.538243           
         O23       1.0000    0.04610   0.83280   0.44199   Biso      1.000     O          -0.597986           
         O24       1.0000    0.83280   0.95390   0.44199   Biso      1.000     O          -0.597986           
         O25       1.0000    0.71520   0.07450   0.43154   Biso      1.000     O          -0.538243           
         O26       1.0000    0.21520   0.57450   0.06846   Biso      1.000     O          -0.538244           
         O27       1.0000    0.42550   0.21520   0.93154   Biso      1.000     O          -0.538243           
         O28       1.0000    0.54610   0.33280   0.94199   Biso      1.000     O          -0.597986           
         O29       1.0000    0.16720   0.04610   0.55801   Biso      1.000     O          -0.597986           
         O30       1.0000    0.28480   0.92550   0.56846   Biso      1.000     O          -0.538243           
         O31       1.0000    0.54610   0.33280   0.05801   Biso      1.000     O          -0.597986           
         O32       1.0000    0.92550   0.71520   0.43154   Biso      1.000     O          -0.538243           
         Si1       1.0000    0.00000   0.50000   0.75000   Biso      1.000     Si          0.662203  
         Si2       1.0000    0.50000   0.00000   0.25000   Biso      1.000     Si          0.662203  
         Si3       1.0000    0.50000   0.00000   0.75000   Biso      1.000     Si          0.662203  
         Si4       1.0000    0.00000   0.50000   0.25000   Biso      1.000     Si          0.662203 