
##########################################################################
#               Crystallographic Information Format file
#               Produced by PyCifRW module
#
#  This is a CIF file.  CIF has been adopted by the International
#  Union of Crystallography as the standard for data archiving and
#  transmission.
#
#  For information on this file format, follow the CIF links at
#  http://www.iucr.org
##########################################################################

data_image0

_cell_length_a                          11.7271
_cell_length_b                          11.7707
_cell_length_c                          18.2633
_cell_angle_alpha                       90
_cell_angle_beta                        98.704
_cell_angle_gamma                       90
_symmetry_space_group_name_H-M          'P 1'
_symmetry_int_tables_number             1
loop_
  _symmetry_equiv_pos_as_xyz
         'x, y, z' 
loop_
  _atom_site_label
  _atom_site_occupancy
  _atom_site_fract_x
  _atom_site_fract_y
  _atom_site_fract_z
  _atom_site_thermal_displace_type
  _atom_site_B_iso_or_equiv
  _atom_site_type_symbol
  _atom_site_charge
         Ag1       1.0000    0.35570   0.60152   0.01521   Biso      1.000     Ag          0.150023  
         Ag2       1.0000    0.35991   0.13228   0.50423   Biso      1.000     Ag          0.230009  
         Ag3       1.0000    0.87883   0.60307   0.92201   Biso      1.000     Ag          0.232812  
         Ag4       1.0000    0.64430   0.10152   0.98479   Biso      1.000     Ag          0.150024  
         Ag5       1.0000    0.64009   0.63228   0.49577   Biso      1.000     Ag          0.230009  
         Ag6       1.0000    0.12117   0.10307   0.07799   Biso      1.000     Ag          0.232813  
         C1        1.0000    0.71970   0.90760   0.44740   Biso      1.000     C          -0.257186           
         C2        1.0000    0.63630   0.01020   0.33510   Biso      1.000     C          -0.039996           
         C3        1.0000    0.44420   0.00720   0.36420   Biso      1.000     C          -0.055783           
         C4        1.0000    0.49350   0.90520   0.47850   Biso      1.000     C          -0.266012           
         C5        1.0000    0.53840   0.82910   0.34050   Biso      1.000     C          -0.272161           
         C6        1.0000    0.65010   0.73090   0.83960   Biso      1.000     C          -0.045994           
         C7        1.0000    0.63290   0.65400   0.95980   Biso      1.000     C          -0.288628           
         C8        1.0000    0.60220   0.07440   0.45500   Biso      1.000     C          -0.063651           
         C9        1.0000    0.56420   0.91060   0.86000   Biso      1.000     C          -0.050925           
         C10       1.0000    0.52980   0.85990   0.98360   Biso      1.000     C          -0.279565           
         C11       1.0000    0.72180   0.83870   0.94880   Biso      1.000     C          -0.037631           
         C12       1.0000    0.10950   0.70140   0.21290   Biso      1.000     C          -0.036078           
         C13       1.0000    0.01880   0.81520   0.11060   Biso      1.000     C          -0.249721           
         C14       1.0000    0.12940   0.64770   0.08910   Biso      1.000     C          -0.043161           
         C15       1.0000    0.44440   0.73980   0.85900   Biso      1.000     C          -0.257949           
         C16       1.0000    0.21430   0.87830   0.21120   Biso      1.000     C          -0.257916           
         C17       1.0000    0.23590   0.81900   0.06480   Biso      1.000     C          -0.268235           
         C18       1.0000    0.81570   0.66060   0.63640   Biso      1.000     C          0.566262  
         C19       1.0000    0.96770   0.45320   0.62510   Biso      1.000     C          0.546089  
         C20       1.0000    0.05510   0.76550   0.87790   Biso      1.000     C          0.584355  
         C21       1.0000    0.19360   0.54940   0.87070   Biso      1.000     C          0.568365  
         C22       1.0000    0.07380   0.51460   0.74610   Biso      1.000     C          -0.145004           
         C23       1.0000    0.98410   0.53600   0.68850   Biso      1.000     C          -0.015144           
         C24       1.0000    0.91530   0.63330   0.69460   Biso      1.000     C          -0.026952           
         C25       1.0000    0.29800   0.70440   0.17610   Biso      1.000     C          -0.059199           
         C26       1.0000    0.90010   0.08220   0.19130   Biso      1.000     C          -0.048718           
         C27       1.0000    0.08470   0.13330   0.30540   Biso      1.000     C          -0.026953           
         C28       1.0000    0.05650   0.20490   0.24300   Biso      1.000     C          -0.153866           
         C29       1.0000    0.55560   0.23980   0.14100   Biso      1.000     C          -0.257949           
         C30       1.0000    0.47020   0.35990   0.01640   Biso      1.000     C          -0.279565           
         C31       1.0000    0.43580   0.41060   0.14000   Biso      1.000     C          -0.050926           
         C32       1.0000    0.34990   0.23090   0.16040   Biso      1.000     C          -0.045994           
         C33       1.0000    0.36710   0.15400   0.04020   Biso      1.000     C          -0.288628           
         C34       1.0000    0.27820   0.33870   0.05120   Biso      1.000     C          -0.037632           
         C35       1.0000    0.46160   0.32910   0.65950   Biso      1.000     C          -0.27216  
         C36       1.0000    0.50650   0.40520   0.52150   Biso      1.000     C          -0.266012           
         C37       1.0000    0.55580   0.50720   0.63580   Biso      1.000     C          -0.055783           
         C38       1.0000    0.36370   0.51020   0.66490   Biso      1.000     C          -0.039995           
         C39       1.0000    0.28030   0.40760   0.55260   Biso      1.000     C          -0.257186           
         C40       1.0000    0.39780   0.57440   0.54500   Biso      1.000     C          -0.063651           
         C41       1.0000    0.89050   0.20140   0.78710   Biso      1.000     C          -0.036078           
         C42       1.0000    0.70200   0.20440   0.82390   Biso      1.000     C          -0.059198           
         C43       1.0000    0.87060   0.14770   0.91090   Biso      1.000     C          -0.043161           
         C44       1.0000    0.98120   0.31520   0.88940   Biso      1.000     C          -0.249721           
         C45       1.0000    0.78570   0.37830   0.78880   Biso      1.000     C          -0.257916           
         C46       1.0000    0.76410   0.31900   0.93520   Biso      1.000     C          -0.268235           
         C47       1.0000    0.18430   0.16060   0.36360   Biso      1.000     C          0.566271  
         C48       1.0000    0.03230   0.95320   0.37490   Biso      1.000     C          0.546088  
         C49       1.0000    0.94490   0.26550   0.12210   Biso      1.000     C          0.584355  
         C50       1.0000    0.80640   0.04940   0.12930   Biso      1.000     C          0.568365  
         C51       1.0000    0.92620   0.01460   0.25390   Biso      1.000     C          -0.145004           
         C52       1.0000    0.01590   0.03600   0.31150   Biso      1.000     C          -0.015142           
         C53       1.0000    0.94350   0.70490   0.75700   Biso      1.000     C          -0.153865           
         C54       1.0000    0.96690   0.17980   0.18630   Biso      1.000     C          -0.034049           
         C55       1.0000    0.03310   0.67980   0.81370   Biso      1.000     C          -0.034051           
         C56       1.0000    0.09990   0.58220   0.80870   Biso      1.000     C          -0.048718           
         H1        1.0000    0.88230   0.12230   0.76870   Biso      1.000     H          0.106055  
         H2        1.0000    0.37160   0.96290   0.35690   Biso      1.000     H          0.114103  
         H3        1.0000    0.42630   0.08410   0.34370   Biso      1.000     H          0.105763  
         H4        1.0000    0.51850   0.91350   0.53250   Biso      1.000     H          0.140365  
         H5        1.0000    0.41610   0.86970   0.47120   Biso      1.000     H          0.148844  
         H6        1.0000    0.46160   0.79290   0.32920   Biso      1.000     H          0.137162  
         H7        1.0000    0.59040   0.79170   0.30990   Biso      1.000     H          0.142629  
         H8        1.0000    0.75130   0.83140   0.00230   Biso      1.000     H          0.120352  
         H9        1.0000    0.78120   0.87840   0.92520   Biso      1.000     H          0.108461  
         H10       1.0000    0.62590   0.57630   0.93880   Biso      1.000     H          0.131249  
         H11       1.0000    0.67240   0.64840   0.01160   Biso      1.000     H          0.145649  
         H12       1.0000    0.70540   0.76560   0.81030   Biso      1.000     H          0.108273  
         H13       1.0000    0.63360   0.65280   0.82080   Biso      1.000     H          0.105362  
         H14       1.0000    0.61900   0.94990   0.83240   Biso      1.000     H          0.094929  
         H15       1.0000    0.49190   0.95520   0.85360   Biso      1.000     H          0.102882  
         H16       1.0000    0.56460   0.86170   0.03650   Biso      1.000     H          0.144552  
         H17       1.0000    0.62580   0.08740   0.31350   Biso      1.000     H          0.102892  
         H18       1.0000    0.68370   0.12570   0.80690   Biso      1.000     H          0.0912    
         H19       1.0000    0.75330   0.91670   0.50010   Biso      1.000     H          0.160383  
         H20       1.0000    0.77980   0.87450   0.42110   Biso      1.000     H          0.151723  
         H21       1.0000    0.89980   0.77220   0.76030   Biso      1.000     H          0.123529  
         H22       1.0000    0.12020   0.44940   0.74220   Biso      1.000     H          0.11516   
         H23       1.0000    0.31380   0.85300   0.06800   Biso      1.000     H          0.122803  
         H24       1.0000    0.20190   0.81550   0.01180   Biso      1.000     H          0.15099   
         H25       1.0000    0.16860   0.91240   0.24690   Biso      1.000     H          0.136461  
         H26       1.0000    0.29240   0.91230   0.22010   Biso      1.000     H          0.12911   
         H27       1.0000    0.97780   0.81220   0.05910   Biso      1.000     H          0.142567  
         H28       1.0000    0.46000   0.90830   0.97790   Biso      1.000     H          0.136723  
         H29       1.0000    0.96460   0.84560   0.14240   Biso      1.000     H          0.139812  
         H30       1.0000    0.09210   0.65130   0.03680   Biso      1.000     H          0.10758   
         H31       1.0000    0.37130   0.74740   0.18160   Biso      1.000     H          0.100874  
         H32       1.0000    0.31630   0.62570   0.19310   Biso      1.000     H          0.0912    
         H33       1.0000    0.11770   0.62230   0.23130   Biso      1.000     H          0.106056  
         H34       1.0000    0.05900   0.74220   0.24300   Biso      1.000     H          0.114349  
         H35       1.0000    0.63340   0.07530   0.50850   Biso      1.000     H          0.10791   
         H36       1.0000    0.59220   0.15440   0.43840   Biso      1.000     H          0.102193  
         H37       1.0000    0.13890   0.56650   0.10290   Biso      1.000     H          0.096967  
         H38       1.0000    0.37390   0.78720   0.85070   Biso      1.000     H          0.15784   
         H39       1.0000    0.69250   0.96990   0.30910   Biso      1.000     H          0.106686  
         H40       1.0000    0.10020   0.27220   0.23970   Biso      1.000     H          0.123528  
         H41       1.0000    0.37410   0.07630   0.06120   Biso      1.000     H          0.13125   
         H42       1.0000    0.21880   0.37840   0.07480   Biso      1.000     H          0.108461  
         H43       1.0000    0.24870   0.33140   0.99770   Biso      1.000     H          0.120352  
         H44       1.0000    0.40960   0.29170   0.69010   Biso      1.000     H          0.142628  
         H45       1.0000    0.53840   0.29290   0.67080   Biso      1.000     H          0.137161  
         H46       1.0000    0.58390   0.36970   0.52880   Biso      1.000     H          0.148844  
         H47       1.0000    0.48150   0.41350   0.46750   Biso      1.000     H          0.140366  
         H48       1.0000    0.32760   0.14840   0.98840   Biso      1.000     H          0.145649  
         H49       1.0000    0.57370   0.58410   0.65630   Biso      1.000     H          0.105763  
         H50       1.0000    0.37420   0.58740   0.68650   Biso      1.000     H          0.102893  
         H51       1.0000    0.30750   0.46990   0.69090   Biso      1.000     H          0.106685  
         H52       1.0000    0.22020   0.37450   0.57890   Biso      1.000     H          0.151723  
         H53       1.0000    0.40780   0.65440   0.56160   Biso      1.000     H          0.102193  
         H54       1.0000    0.36660   0.57530   0.49150   Biso      1.000     H          0.10791   
         H55       1.0000    0.94100   0.24220   0.75700   Biso      1.000     H          0.114349  
         H56       1.0000    0.42680   0.66640   0.83330   Biso      1.000     H          0.149393  
         H57       1.0000    0.62840   0.46290   0.64310   Biso      1.000     H          0.114103  
         H58       1.0000    0.29460   0.26560   0.18970   Biso      1.000     H          0.108273  
         H59       1.0000    0.24670   0.41670   0.49990   Biso      1.000     H          0.160383  
         H60       1.0000    0.38100   0.44990   0.16760   Biso      1.000     H          0.094929  
         H61       1.0000    0.36640   0.15280   0.17920   Biso      1.000     H          0.105362  
         H62       1.0000    0.68620   0.35300   0.93200   Biso      1.000     H          0.122803  
         H63       1.0000    0.79810   0.31550   0.98820   Biso      1.000     H          0.15099   
         H64       1.0000    0.83140   0.41240   0.75310   Biso      1.000     H          0.136461  
         H65       1.0000    0.70760   0.41230   0.77990   Biso      1.000     H          0.12911   
         H66       1.0000    0.02220   0.31220   0.94090   Biso      1.000     H          0.142566  
         H67       1.0000    0.03540   0.34560   0.85760   Biso      1.000     H          0.139811  
         H68       1.0000    0.86110   0.06650   0.89710   Biso      1.000     H          0.096967  
         H69       1.0000    0.87980   0.94940   0.25780   Biso      1.000     H          0.11516   
         H70       1.0000    0.62870   0.24740   0.81840   Biso      1.000     H          0.100874  
         H71       1.0000    0.57320   0.16640   0.16670   Biso      1.000     H          0.149393  
         H72       1.0000    0.62610   0.28720   0.14930   Biso      1.000     H          0.15784   
         H73       1.0000    0.54000   0.40830   0.02210   Biso      1.000     H          0.136723  
         H74       1.0000    0.43540   0.36170   0.96350   Biso      1.000     H          0.144552  
         H75       1.0000    0.50810   0.45520   0.14640   Biso      1.000     H          0.102882  
         H76       1.0000    0.90790   0.15130   0.96320   Biso      1.000     H          0.107579  
         N1        1.0000    0.94610   0.20030   0.86490   Biso      1.000     N          -0.124809           
         N2        1.0000    0.77690   0.25560   0.77650   Biso      1.000     N          -0.116771           
         N3        1.0000    0.75320   0.20160   0.90460   Biso      1.000     N          -0.089264           
         N4        1.0000    0.53980   0.79860   0.82780   Biso      1.000     N          -0.139723           
         N5        1.0000    0.70350   0.72460   0.91640   Biso      1.000     N          -0.079032           
         N6        1.0000    0.61290   0.90940   0.93910   Biso      1.000     N          -0.078049           
         N7        1.0000    0.52830   0.95150   0.32110   Biso      1.000     N          -0.141355           
         N8        1.0000    0.68640   0.02100   0.41540   Biso      1.000     N          -0.100358           
         N9        1.0000    0.48480   0.01770   0.44480   Biso      1.000     N          -0.067456           
         N10       1.0000    0.24680   0.70160   0.09540   Biso      1.000     N          -0.089264           
         N11       1.0000    0.22310   0.75560   0.22350   Biso      1.000     N          -0.116771           
         N12       1.0000    0.47170   0.45150   0.67890   Biso      1.000     N          -0.141356           
         N13       1.0000    0.38710   0.40940   0.06090   Biso      1.000     N          -0.078049           
         N14       1.0000    0.29650   0.22460   0.08360   Biso      1.000     N          -0.079032           
         N15       1.0000    0.51520   0.51770   0.55520   Biso      1.000     N          -0.067455           
         N16       1.0000    0.46020   0.29860   0.17220   Biso      1.000     N          -0.139723           
         N17       1.0000    0.05390   0.70030   0.13510   Biso      1.000     N          -0.124809           
         N18       1.0000    0.31360   0.52100   0.58460   Biso      1.000     N          -0.100359           
         O1        1.0000    0.79380   0.59460   0.58350   Biso      1.000     O          -0.483723           
         O2        1.0000    0.75470   0.74780   0.64510   Biso      1.000     O          -0.616653           
         O3        1.0000    0.81470   0.08180   0.06640   Biso      1.000     O          -0.524716           
         O4        1.0000    0.01380   0.26200   0.07580   Biso      1.000     O          -0.521802           
         O5        1.0000    0.87110   0.33870   0.12530   Biso      1.000     O          -0.529798           
         O6        1.0000    0.97590   0.96910   0.42700   Biso      1.000     O          -0.40894  
         O7        1.0000    0.90550   0.36920   0.63110   Biso      1.000     O          -0.461746           
         O8        1.0000    0.09450   0.86920   0.36890   Biso      1.000     O          -0.461749           
         O9        1.0000    0.72600   0.98400   0.14440   Biso      1.000     O          -0.641421           
         O10       1.0000    0.02410   0.46910   0.57300   Biso      1.000     O          -0.408941           
         O11       1.0000    0.20620   0.09460   0.41650   Biso      1.000     O          -0.483726           
         O12       1.0000    0.98620   0.76200   0.92420   Biso      1.000     O          -0.521803           
         O13       1.0000    0.27400   0.48400   0.85560   Biso      1.000     O          -0.641421           
         O14       1.0000    0.18530   0.58180   0.93360   Biso      1.000     O          -0.524717           
         O15       1.0000    0.24530   0.24780   0.35490   Biso      1.000     O          -0.616661           
         O16       1.0000    0.12890   0.83870   0.87470   Biso      1.000     O          -0.529799           
         P1        1.0000    0.14456   0.91204   0.11485   Biso      1.000     P          0.264684  
         P2        1.0000    0.59597   0.80869   0.44037   Biso      1.000     P          0.251859  
         P3        1.0000    0.48655   0.71465   0.95908   Biso      1.000     P          0.280913  
         P4        1.0000    0.85544   0.41204   0.88515   Biso      1.000     P          0.264684  
         P5        1.0000    0.51345   0.21465   0.04092   Biso      1.000     P          0.280913  
         P6        1.0000    0.40403   0.30869   0.55963   Biso      1.000     P          0.251859 