
##########################################################################
#               Crystallographic Information Format file
#               Produced by PyCifRW module
#
#  This is a CIF file.  CIF has been adopted by the International
#  Union of Crystallography as the standard for data archiving and
#  transmission.
#
#  For information on this file format, follow the CIF links at
#  http://www.iucr.org
##########################################################################

data_image0

_cell_length_a                          7.7159
_cell_length_b                          7.8623
_cell_length_c                          18.323
_cell_angle_alpha                       90
_cell_angle_beta                        90
_cell_angle_gamma                       95.7
_symmetry_space_group_name_H-M          'P 1'
_symmetry_int_tables_number             1
loop_
  _symmetry_equiv_pos_as_xyz
         'x, y, z' 
loop_
  _atom_site_label
  _atom_site_occupancy
  _atom_site_fract_x
  _atom_site_fract_y
  _atom_site_fract_z
  _atom_site_thermal_displace_type
  _atom_site_B_iso_or_equiv
  _atom_site_type_symbol
  _atom_site_charge
         C1        1.0000    0.61280   0.39450   0.95781   Biso      1.000     C          -0.203652           
         C2        1.0000    0.46800   0.66710   0.96938   Biso      1.000     C          -0.200757           
         C3        1.0000    0.85770   0.95770   0.85299   Biso      1.000     C          0.637313  
         C4        1.0000    0.88800   0.98170   0.93446   Biso      1.000     C          -0.119164           
         C5        1.0000    0.96770   0.82900   0.96820   Biso      1.000     C          -0.208056           
         C6        1.0000    0.00620   0.14690   0.94957   Biso      1.000     C          -0.199573           
         C7        1.0000    0.92870   0.41690   0.34725   Biso      1.000     C          0.6393    
         C8        1.0000    0.88720   0.60550   0.45781   Biso      1.000     C          -0.203652           
         C9        1.0000    0.00080   0.48460   0.41963   Biso      1.000     C          -0.11608199999999999          
         C10       1.0000    0.03200   0.33290   0.46938   Biso      1.000     C          -0.200756           
         C11       1.0000    0.64230   0.04230   0.35299   Biso      1.000     C          0.637317  
         C12       1.0000    0.61200   0.01830   0.43446   Biso      1.000     C          -0.119163           
         C13       1.0000    0.53230   0.17100   0.46820   Biso      1.000     C          -0.20805500000000002          
         C14       1.0000    0.49380   0.85310   0.44957   Biso      1.000     C          -0.199573           
         C15       1.0000    0.42870   0.41690   0.15275   Biso      1.000     C          0.639306  
         C16       1.0000    0.38720   0.60550   0.04219   Biso      1.000     C          -0.203652           
         C17       1.0000    0.50080   0.48460   0.08037   Biso      1.000     C          -0.11608299999999999          
         C18       1.0000    0.53200   0.33290   0.03062   Biso      1.000     C          -0.200757           
         C19       1.0000    0.14230   0.04230   0.14701   Biso      1.000     C          0.637313  
         C20       1.0000    0.11200   0.01830   0.06554   Biso      1.000     C          -0.11916500000000001          
         C21       1.0000    0.03230   0.17100   0.03180   Biso      1.000     C          -0.20805700000000002          
         C22       1.0000    0.99380   0.85310   0.05043   Biso      1.000     C          -0.199573           
         C23       1.0000    0.07130   0.58310   0.65275   Biso      1.000     C          0.639307  
         C24       1.0000    0.11280   0.39450   0.54219   Biso      1.000     C          -0.203652           
         C25       1.0000    0.99920   0.51540   0.58037   Biso      1.000     C          -0.11608399999999999          
         C26       1.0000    0.96800   0.66710   0.53062   Biso      1.000     C          -0.200756           
         C27       1.0000    0.35770   0.95770   0.64701   Biso      1.000     C          0.637316  
         C28       1.0000    0.38800   0.98170   0.56554   Biso      1.000     C          -0.11916500000000001          
         C29       1.0000    0.46770   0.82900   0.53180   Biso      1.000     C          -0.208056           
         C30       1.0000    0.50620   0.14690   0.55043   Biso      1.000     C          -0.199574           
         C31       1.0000    0.49920   0.51540   0.91963   Biso      1.000     C          -0.11608299999999999          
         C32       1.0000    0.57130   0.58310   0.84725   Biso      1.000     C          0.639305  
         Ca1       1.0000    0.72083   0.78084   0.72561   Biso      1.000     Ca          1.4448809999999999  
         Ca2       1.0000    0.77917   0.21916   0.22561   Biso      1.000     Ca          1.44487   
         Ca3       1.0000    0.27917   0.21916   0.27438   Biso      1.000     Ca          1.44486   
         Ca4       1.0000    0.22083   0.78084   0.77439   Biso      1.000     Ca          1.4448729999999999  
         H1        1.0000    0.88190   0.85890   0.07390   Biso      1.000     H          0.104225  
         H2        1.0000    0.72480   0.00870   0.45790   Biso      1.000     H          0.091649  
         H3        1.0000    0.92220   0.26500   0.47840   Biso      1.000     H          0.107333  
         H4        1.0000    0.10910   0.26090   0.44500   Biso      1.000     H          0.090792  
         H5        1.0000    0.11420   0.54840   0.41010   Biso      1.000     H          0.09544   
         H6        1.0000    0.77230   0.54710   0.46640   Biso      1.000     H          0.10341099999999999           
         H7        1.0000    0.04630   0.75620   0.07050   Biso      1.000     H          0.113579  
         H8        1.0000    0.11810   0.14110   0.92610   Biso      1.000     H          0.104225  
         H9        1.0000    0.95370   0.24380   0.92950   Biso      1.000     H          0.11358   
         H10       1.0000    0.07900   0.81650   0.94520   Biso      1.000     H          0.090127  
         H11       1.0000    0.42100   0.18350   0.44520   Biso      1.000     H          0.090133  
         H12       1.0000    0.77520   0.99130   0.95790   Biso      1.000     H          0.091649  
         H13       1.0000    0.57780   0.73500   0.97840   Biso      1.000     H          0.10733399999999998           
         H14       1.0000    0.39090   0.73910   0.94500   Biso      1.000     H          0.090788  
         H15       1.0000    0.38580   0.45160   0.91010   Biso      1.000     H          0.095439  
         H16       1.0000    0.72770   0.45290   0.96640   Biso      1.000     H          0.10340999999999999           
         H17       1.0000    0.62560   0.29680   0.92660   Biso      1.000     H          0.115897  
         H18       1.0000    0.89150   0.72540   0.95920   Biso      1.000     H          0.104023  
         H19       1.0000    0.60850   0.27460   0.45920   Biso      1.000     H          0.104023  
         H20       1.0000    0.87440   0.70320   0.42660   Biso      1.000     H          0.115896  
         H21       1.0000    0.38190   0.85890   0.42610   Biso      1.000     H          0.104226  
         H22       1.0000    0.12560   0.29680   0.57340   Biso      1.000     H          0.115895  
         H23       1.0000    0.22770   0.45290   0.53360   Biso      1.000     H          0.10341099999999999           
         H24       1.0000    0.54630   0.75620   0.42950   Biso      1.000     H          0.113579  
         H25       1.0000    0.89090   0.73910   0.55500   Biso      1.000     H          0.090787  
         H26       1.0000    0.07780   0.73500   0.52160   Biso      1.000     H          0.10733399999999998           
         H27       1.0000    0.27520   0.99130   0.54210   Biso      1.000     H          0.091651  
         H28       1.0000    0.57900   0.81650   0.55480   Biso      1.000     H          0.090126  
         H29       1.0000    0.39150   0.72540   0.54080   Biso      1.000     H          0.104022  
         H30       1.0000    0.45370   0.24380   0.57050   Biso      1.000     H          0.113578  
         H31       1.0000    0.88580   0.45160   0.58990   Biso      1.000     H          0.095439  
         H32       1.0000    0.10850   0.27460   0.04080   Biso      1.000     H          0.104022  
         H33       1.0000    0.92100   0.18350   0.05480   Biso      1.000     H          0.090127  
         H34       1.0000    0.22480   0.00870   0.04210   Biso      1.000     H          0.09165   
         H35       1.0000    0.42220   0.26500   0.02160   Biso      1.000     H          0.10733399999999998           
         H36       1.0000    0.60910   0.26090   0.05500   Biso      1.000     H          0.090787  
         H37       1.0000    0.61420   0.54840   0.08990   Biso      1.000     H          0.095441  
         H38       1.0000    0.27230   0.54710   0.03360   Biso      1.000     H          0.10340999999999999           
         H39       1.0000    0.37440   0.70320   0.07340   Biso      1.000     H          0.115896  
         H40       1.0000    0.61810   0.14110   0.57390   Biso      1.000     H          0.104223  
         O1        1.0000    0.22716   0.56732   0.67134   Biso      1.000     O          -0.608641           
         O2        1.0000    0.97368   0.66073   0.69363   Biso      1.000     O          -0.7346659999999999           
         O3        1.0000    0.28580   0.00738   0.17435   Biso      1.000     O          -0.632678           
         O4        1.0000    0.02705   0.09931   0.18610   Biso      1.000     O          -0.714696           
         O5        1.0000    0.27284   0.43268   0.17134   Biso      1.000     O          -0.608645           
         O6        1.0000    0.52632   0.33927   0.19363   Biso      1.000     O          -0.7346630000000001           
         O7        1.0000    0.78580   0.00738   0.32565   Biso      1.000     O          -0.63268  
         O8        1.0000    0.71420   0.99262   0.82565   Biso      1.000     O          -0.6326729999999999           
         O9        1.0000    0.77284   0.43268   0.32866   Biso      1.000     O          -0.608644           
         O10       1.0000    0.02632   0.33927   0.30637   Biso      1.000     O          -0.734637           
         O11       1.0000    0.97295   0.90069   0.81390   Biso      1.000     O          -0.7147   
         O12       1.0000    0.72716   0.56732   0.82866   Biso      1.000     O          -0.60864  
         O13       1.0000    0.47368   0.66073   0.80637   Biso      1.000     O          -0.734661           
         O14       1.0000    0.47295   0.90069   0.68610   Biso      1.000     O          -0.714705           
         O15       1.0000    0.52705   0.09931   0.31390   Biso      1.000     O          -0.7147060000000001           
         O16       1.0000    0.21420   0.99262   0.67435   Biso      1.000     O          -0.632675 