
##########################################################################
#               Crystallographic Information Format file
#               Produced by PyCifRW module
#
#  This is a CIF file.  CIF has been adopted by the International
#  Union of Crystallography as the standard for data archiving and
#  transmission.
#
#  For information on this file format, follow the CIF links at
#  http://www.iucr.org
##########################################################################

data_image0

_cell_length_a                          9.631
_cell_length_b                          12.212
_cell_length_c                          12.212
_cell_angle_alpha                       95.4993
_cell_angle_beta                        94.5059
_cell_angle_gamma                       94.5059
_symmetry_space_group_name_H-M          'P 1'
_symmetry_int_tables_number             1
loop_
  _symmetry_equiv_pos_as_xyz
         'x, y, z' 
loop_
  _atom_site_label
  _atom_site_occupancy
  _atom_site_fract_x
  _atom_site_fract_y
  _atom_site_fract_z
  _atom_site_thermal_displace_type
  _atom_site_B_iso_or_equiv
  _atom_site_type_symbol
  _atom_site_charge
         C1        1.0000    0.28910   0.56530   0.50590   Biso      1.000     C          -0.164972           
         C2        1.0000    0.03330   0.59750   0.88750   Biso      1.000     C          0.641438  
         C3        1.0000    0.04250   0.50810   0.96170   Biso      1.000     C          -0.172865           
         C4        1.0000    0.78910   0.50590   0.56530   Biso      1.000     C          -0.164972           
         C5        1.0000    0.81610   0.92210   0.86530   Biso      1.000     C          0.751955  
         C6        1.0000    0.80900   0.01360   0.95480   Biso      1.000     C          -0.174563           
         C7        1.0000    0.53330   0.88750   0.59750   Biso      1.000     C          0.641438  
         C8        1.0000    0.54250   0.96170   0.50810   Biso      1.000     C          -0.172865           
         C9        1.0000    0.69100   0.04520   0.98640   Biso      1.000     C          -0.17451  
         C10       1.0000    0.23030   0.64350   0.58750   Biso      1.000     C          0.714544  
         C11       1.0000    0.30900   0.95480   0.01360   Biso      1.000     C          -0.174563           
         C12       1.0000    0.96670   0.40250   0.11250   Biso      1.000     C          0.641434  
         C13       1.0000    0.95750   0.49190   0.03830   Biso      1.000     C          -0.172829           
         C14       1.0000    0.26970   0.41250   0.35650   Biso      1.000     C          0.714539  
         C15       1.0000    0.21090   0.49410   0.43470   Biso      1.000     C          -0.164926           
         C16       1.0000    0.18390   0.07790   0.13470   Biso      1.000     C          0.751951  
         C17       1.0000    0.19100   0.98640   0.04520   Biso      1.000     C          -0.17451  
         C18       1.0000    0.31610   0.86530   0.92210   Biso      1.000     C          0.751956  
         C19       1.0000    0.68390   0.13470   0.07790   Biso      1.000     C          0.751951  
         C20       1.0000    0.73030   0.58750   0.64350   Biso      1.000     C          0.714543  
         C21       1.0000    0.76970   0.35650   0.41250   Biso      1.000     C          0.714539  
         C22       1.0000    0.45750   0.03830   0.49190   Biso      1.000     C          -0.172829           
         C23       1.0000    0.46670   0.11250   0.40250   Biso      1.000     C          0.641434  
         C24       1.0000    0.71090   0.43470   0.49410   Biso      1.000     C          -0.164926           
         H1        1.0000    0.38700   0.04670   0.53910   Biso      1.000     H          0.134772  
         H2        1.0000    0.61420   0.43320   0.49480   Biso      1.000     H          0.145046  
         H3        1.0000    0.11300   0.46090   0.95330   Biso      1.000     H          0.134774  
         H4        1.0000    0.88580   0.50520   0.56680   Biso      1.000     H          0.145049  
         H5        1.0000    0.89210   0.04940   0.98920   Biso      1.000     H          0.144869  
         H6        1.0000    0.60790   0.01080   0.95060   Biso      1.000     H          0.144866  
         H7        1.0000    0.38580   0.56680   0.50520   Biso      1.000     H          0.145049  
         H8        1.0000    0.39210   0.98920   0.04940   Biso      1.000     H          0.144869  
         H9        1.0000    0.88700   0.53910   0.04670   Biso      1.000     H          0.134772  
         H10       1.0000    0.11420   0.49480   0.43320   Biso      1.000     H          0.145046  
         H11       1.0000    0.10790   0.95060   0.01080   Biso      1.000     H          0.144866  
         H12       1.0000    0.61300   0.95330   0.46090   Biso      1.000     H          0.134774  
         O1        1.0000    0.70840   0.86910   0.82370   Biso      1.000     O          -0.706629           
         O2        1.0000    0.60230   0.80430   0.59150   Biso      1.000     O          -0.653593           
         O3        1.0000    0.45860   0.90758   0.67542   Biso      1.000     O          -0.627299           
         O4        1.0000    0.31390   0.69721   0.66143   Biso      1.000     O          -0.741955           
         O5        1.0000    0.10160   0.65443   0.58023   Biso      1.000     O          -0.668662           
         O6        1.0000    0.39840   0.41977   0.34557   Biso      1.000     O          -0.668662           
         O7        1.0000    0.20840   0.82370   0.86910   Biso      1.000     O          -0.706629           
         O8        1.0000    0.18610   0.33857   0.30279   Biso      1.000     O          -0.741955           
         O9        1.0000    0.04140   0.32458   0.09242   Biso      1.000     O          -0.627298           
         O10       1.0000    0.93570   0.90568   0.83668   Biso      1.000     O          -0.710494           
         O11       1.0000    0.89770   0.40850   0.19570   Biso      1.000     O          -0.653594           
         O12       1.0000    0.43570   0.83668   0.90568   Biso      1.000     O          -0.710494           
         O13       1.0000    0.60160   0.58023   0.65443   Biso      1.000     O          -0.668662           
         O14       1.0000    0.29160   0.13090   0.17630   Biso      1.000     O          -0.706628           
         O15       1.0000    0.95860   0.67542   0.90758   Biso      1.000     O          -0.627299           
         O16       1.0000    0.10230   0.59150   0.80430   Biso      1.000     O          -0.653593           
         O17       1.0000    0.79160   0.17630   0.13090   Biso      1.000     O          -0.706628           
         O18       1.0000    0.56430   0.16332   0.09432   Biso      1.000     O          -0.710494           
         O19       1.0000    0.89840   0.34557   0.41977   Biso      1.000     O          -0.668662           
         O20       1.0000    0.68610   0.30279   0.33857   Biso      1.000     O          -0.741955           
         O21       1.0000    0.54140   0.09242   0.32458   Biso      1.000     O          -0.627298           
         O22       1.0000    0.39770   0.19570   0.40850   Biso      1.000     O          -0.653594           
         O23       1.0000    0.06430   0.09432   0.16332   Biso      1.000     O          -0.710494           
         O24       1.0000    0.81390   0.66143   0.69721   Biso      1.000     O          -0.741955           
         Tb1       1.0000    0.96764   0.23695   0.26374   Biso      1.000     Tb          2.088346  
         Tb2       1.0000    0.53236   0.73626   0.76305   Biso      1.000     Tb          2.088345  
         Tb3       1.0000    0.03236   0.76305   0.73626   Biso      1.000     Tb          2.088345  
         Tb4       1.0000    0.46764   0.26374   0.23695   Biso      1.000     Tb          2.088346 