
##########################################################################
#               Crystallographic Information Format file
#               Produced by PyCifRW module
#
#  This is a CIF file.  CIF has been adopted by the International
#  Union of Crystallography as the standard for data archiving and
#  transmission.
#
#  For information on this file format, follow the CIF links at
#  http://www.iucr.org
##########################################################################

data_image0

_cell_length_a                          6.8604
_cell_length_b                          9.9925
_cell_length_c                          10.8841
_cell_angle_alpha                       90
_cell_angle_beta                        90
_cell_angle_gamma                       90
_symmetry_space_group_name_H-M          'P 1'
_symmetry_int_tables_number             1
loop_
  _symmetry_equiv_pos_as_xyz
         'x, y, z' 
loop_
  _atom_site_label
  _atom_site_occupancy
  _atom_site_fract_x
  _atom_site_fract_y
  _atom_site_fract_z
  _atom_site_thermal_displace_type
  _atom_site_B_iso_or_equiv
  _atom_site_type_symbol
  _atom_site_charge
         C1        1.0000    0.99780   0.86760   0.93440   Biso      1.000     C          -0.187801           
         C2        1.0000    0.45340   0.78070   0.04988   Biso      1.000     C          0.665572  
         C3        1.0000    0.14800   0.41614   0.22367   Biso      1.000     C          0.67784   
         C4        1.0000    0.35200   0.58386   0.72367   Biso      1.000     C          0.6778390000000001  
         C5        1.0000    0.83780   0.05780   0.84390   Biso      1.000     C          -0.182094           
         C6        1.0000    0.95340   0.71930   0.95012   Biso      1.000     C          0.665571  
         C7        1.0000    0.64800   0.08386   0.77633   Biso      1.000     C          0.677841  
         C8        1.0000    0.50220   0.13240   0.43440   Biso      1.000     C          -0.187801           
         C9        1.0000    0.66220   0.94220   0.34390   Biso      1.000     C          -0.182093           
         C10       1.0000    0.54660   0.28070   0.45012   Biso      1.000     C          0.665571  
         C11       1.0000    0.85200   0.91614   0.27633   Biso      1.000     C          0.6778390000000001  
         C12       1.0000    0.33780   0.44220   0.15610   Biso      1.000     C          -0.182093           
         C13       1.0000    0.49780   0.63240   0.06560   Biso      1.000     C          -0.187802           
         C14       1.0000    0.00220   0.36760   0.56560   Biso      1.000     C          -0.1878   
         C15       1.0000    0.16220   0.55780   0.65610   Biso      1.000     C          -0.182092           
         C16       1.0000    0.04660   0.21930   0.54988   Biso      1.000     C          0.66557   
         H1        1.0000    0.32600   0.42100   0.07200   Biso      1.000     H          0.12872999999999998           
         H2        1.0000    0.56000   0.89200   0.31100   Biso      1.000     H          0.13426   
         H3        1.0000    0.67400   0.92100   0.42800   Biso      1.000     H          0.128729  
         H4        1.0000    0.53200   0.08500   0.51300   Biso      1.000     H          0.12266099999999999           
         H5        1.0000    0.37100   0.12500   0.41700   Biso      1.000     H          0.139017  
         H6        1.0000    0.44000   0.39200   0.18900   Biso      1.000     H          0.13426   
         H7        1.0000    0.94000   0.10800   0.81100   Biso      1.000     H          0.13426   
         H8        1.0000    0.96800   0.91500   0.01300   Biso      1.000     H          0.122662  
         H9        1.0000    0.87100   0.37500   0.58300   Biso      1.000     H          0.139018  
         H10       1.0000    0.03200   0.41500   0.48700   Biso      1.000     H          0.12266099999999999           
         H11       1.0000    0.17400   0.57900   0.57200   Biso      1.000     H          0.128729  
         H12       1.0000    0.06000   0.60800   0.68900   Biso      1.000     H          0.134259  
         H13       1.0000    0.12900   0.87500   0.91700   Biso      1.000     H          0.139018  
         H14       1.0000    0.46800   0.58500   0.98700   Biso      1.000     H          0.12266099999999999           
         H15       1.0000    0.82600   0.07900   0.92800   Biso      1.000     H          0.128729  
         H16       1.0000    0.62900   0.62500   0.08300   Biso      1.000     H          0.139018  
         Mg1       1.0000    0.85759   0.20318   0.28934   Biso      1.000     Mg          1.353401  
         Mg2       1.0000    0.35759   0.29682   0.71066   Biso      1.000     Mg          1.353402  
         Mg3       1.0000    0.14241   0.70318   0.21066   Biso      1.000     Mg          1.3534    
         Mg4       1.0000    0.64241   0.79682   0.78934   Biso      1.000     Mg          1.353401  
         O1        1.0000    0.96630   0.15833   0.46343   Biso      1.000     O          -0.644138           
         O2        1.0000    0.39760   0.70595   0.73443   Biso      1.000     O          -0.659339           
         O3        1.0000    0.12180   0.41790   0.66180   Biso      1.000     O          -0.260667           
         O4        1.0000    0.05190   0.51252   0.26261   Biso      1.000     O          -0.628128           
         O5        1.0000    0.33800   0.83430   0.12551   Biso      1.000     O          -0.6593140000000001           
         O6        1.0000    0.53370   0.84167   0.96343   Biso      1.000     O          -0.644138           
         O7        1.0000    0.10240   0.29405   0.23443   Biso      1.000     O          -0.6593399999999999           
         O8        1.0000    0.37820   0.58210   0.16180   Biso      1.000     O          -0.26066500000000004          
         O9        1.0000    0.55190   0.98748   0.73739   Biso      1.000     O          -0.628128           
         O10       1.0000    0.83800   0.66570   0.87449   Biso      1.000     O          -0.6593140000000001           
         O11       1.0000    0.03370   0.65833   0.03657   Biso      1.000     O          -0.644138           
         O12       1.0000    0.60240   0.20595   0.76557   Biso      1.000     O          -0.6593399999999999           
         O13       1.0000    0.87820   0.91790   0.83820   Biso      1.000     O          -0.26066500000000004          
         O14       1.0000    0.94810   0.01252   0.23739   Biso      1.000     O          -0.628129           
         O15       1.0000    0.66200   0.33430   0.37449   Biso      1.000     O          -0.6593140000000001           
         O16       1.0000    0.46630   0.34167   0.53657   Biso      1.000     O          -0.644139           
         O17       1.0000    0.89760   0.79405   0.26557   Biso      1.000     O          -0.659339           
         O18       1.0000    0.62180   0.08210   0.33820   Biso      1.000     O          -0.260666           
         O19       1.0000    0.16200   0.16570   0.62551   Biso      1.000     O          -0.6593140000000001           
         O20       1.0000    0.44810   0.48748   0.76261   Biso      1.000     O          -0.628129 