
##########################################################################
#               Crystallographic Information Format file
#               Produced by PyCifRW module
#
#  This is a CIF file.  CIF has been adopted by the International
#  Union of Crystallography as the standard for data archiving and
#  transmission.
#
#  For information on this file format, follow the CIF links at
#  http://www.iucr.org
##########################################################################

data_image0

_cell_length_a                          5.7277
_cell_length_b                          12.1722
_cell_length_c                          22.9034
_cell_angle_alpha                       98.857
_cell_angle_beta                        90
_cell_angle_gamma                       90
_symmetry_space_group_name_H-M          'P 1'
_symmetry_int_tables_number             1
loop_
  _symmetry_equiv_pos_as_xyz
         'x, y, z' 
loop_
  _atom_site_label
  _atom_site_occupancy
  _atom_site_fract_x
  _atom_site_fract_y
  _atom_site_fract_z
  _atom_site_thermal_displace_type
  _atom_site_B_iso_or_equiv
  _atom_site_type_symbol
  _atom_site_charge
         C1        1.0000    0.87600   0.30620   0.30193   Biso      1.000     C          -0.099092           
         C2        1.0000    0.89290   0.64010   0.96843   Biso      1.000     C          -0.071573           
         C3        1.0000    0.67730   0.61600   0.98997   Biso      1.000     C          -0.09965700000000001          
         C4        1.0000    0.63250   0.64480   0.04927   Biso      1.000     C          -0.09283999999999999          
         C5        1.0000    0.80100   0.69730   0.08729   Biso      1.000     C          -0.010522           
         C6        1.0000    0.75380   0.72390   0.15248   Biso      1.000     C          0.623378  
         C7        1.0000    0.77200   0.48710   0.26794   Biso      1.000     C          0.639374  
         C8        1.0000    0.45020   0.29790   0.35834   Biso      1.000     C          -0.105707           
         C9        1.0000    0.50170   0.38680   0.32919   Biso      1.000     C          -0.093336           
         C10       1.0000    0.71550   0.39160   0.30118   Biso      1.000     C          -0.015056           
         C11       1.0000    0.82630   0.21620   0.32983   Biso      1.000     C          -0.095234           
         C12       1.0000    0.61220   0.21290   0.35750   Biso      1.000     C          -0.081015           
         C13       1.0000    0.48510   0.22350   0.56480   Biso      1.000     C          -0.091193           
         C14       1.0000    0.43810   0.19530   0.50510   Biso      1.000     C          -0.10423900000000001          
         C15       1.0000    0.60710   0.14010   0.46843   Biso      1.000     C          -0.071572           
         C16       1.0000    0.82270   0.11600   0.48997   Biso      1.000     C          -0.09965700000000001          
         C17       1.0000    0.86750   0.14480   0.54927   Biso      1.000     C          -0.09283999999999999          
         C18       1.0000    0.74620   0.22390   0.65248   Biso      1.000     C          0.6233770000000001  
         C19       1.0000    0.27200   0.01290   0.23206   Biso      1.000     C          0.639374  
         C20       1.0000    0.95020   0.20210   0.14166   Biso      1.000     C          -0.105707           
         C21       1.0000    0.06190   0.69530   0.00510   Biso      1.000     C          -0.10423800000000001          
         C22       1.0000    0.00170   0.11320   0.17081   Biso      1.000     C          -0.093336           
         C23       1.0000    0.01490   0.72350   0.06480   Biso      1.000     C          -0.091192           
         C24       1.0000    0.67370   0.71620   0.82983   Biso      1.000     C          -0.095237           
         C25       1.0000    0.22800   0.51290   0.73206   Biso      1.000     C          0.639374  
         C26       1.0000    0.54980   0.70210   0.64166   Biso      1.000     C          -0.105707           
         C27       1.0000    0.49830   0.61320   0.67081   Biso      1.000     C          -0.093336           
         C28       1.0000    0.28450   0.60840   0.69882   Biso      1.000     C          -0.015055           
         C29       1.0000    0.12400   0.69380   0.69807   Biso      1.000     C          -0.099092           
         C30       1.0000    0.17370   0.78380   0.67017   Biso      1.000     C          -0.095234           
         C31       1.0000    0.38780   0.78710   0.64250   Biso      1.000     C          -0.081015           
         C32       1.0000    0.51490   0.77650   0.43520   Biso      1.000     C          -0.091192           
         C33       1.0000    0.56190   0.80470   0.49490   Biso      1.000     C          -0.10423900000000001          
         C34       1.0000    0.39290   0.85990   0.53157   Biso      1.000     C          -0.071572           
         C35       1.0000    0.17730   0.88400   0.51003   Biso      1.000     C          -0.09965700000000001          
         C36       1.0000    0.13250   0.85520   0.45073   Biso      1.000     C          -0.09283999999999999          
         C37       1.0000    0.30100   0.80270   0.41271   Biso      1.000     C          -0.010522           
         C38       1.0000    0.25380   0.77610   0.34752   Biso      1.000     C          0.623378  
         C39       1.0000    0.72800   0.98710   0.76794   Biso      1.000     C          0.639374  
         C40       1.0000    0.04980   0.79790   0.85834   Biso      1.000     C          -0.105707           
         C41       1.0000    0.99830   0.88680   0.82919   Biso      1.000     C          -0.093336           
         C42       1.0000    0.78450   0.89160   0.80118   Biso      1.000     C          -0.015056           
         C43       1.0000    0.62400   0.80620   0.80193   Biso      1.000     C          -0.09909  
         C44       1.0000    0.88780   0.71290   0.85750   Biso      1.000     C          -0.081015           
         C45       1.0000    0.21550   0.10840   0.19882   Biso      1.000     C          -0.015056           
         C46       1.0000    0.69900   0.19730   0.58729   Biso      1.000     C          -0.010522           
         C47       1.0000    0.32630   0.28380   0.17017   Biso      1.000     C          -0.095237           
         C48       1.0000    0.11220   0.28710   0.14250   Biso      1.000     C          -0.081015           
         C49       1.0000    0.98510   0.27650   0.93520   Biso      1.000     C          -0.091192           
         C50       1.0000    0.93810   0.30470   0.99490   Biso      1.000     C          -0.10423900000000001          
         C51       1.0000    0.10710   0.35990   0.03157   Biso      1.000     C          -0.071572           
         C52       1.0000    0.37600   0.19380   0.19807   Biso      1.000     C          -0.09909  
         C53       1.0000    0.32270   0.38400   0.01003   Biso      1.000     C          -0.09965700000000001          
         C54       1.0000    0.36750   0.35520   0.95073   Biso      1.000     C          -0.09283999999999999          
         C55       1.0000    0.19900   0.30270   0.91271   Biso      1.000     C          -0.010522           
         C56       1.0000    0.24620   0.27610   0.84752   Biso      1.000     C          0.623378  
         H1        1.0000    0.01940   0.30970   0.28330   Biso      1.000     H          0.108928  
         H2        1.0000    0.93410   0.15920   0.33000   Biso      1.000     H          0.125583  
         H3        1.0000    0.37270   0.26020   0.58990   Biso      1.000     H          0.12751099999999999           
         H4        1.0000    0.29500   0.21320   0.48980   Biso      1.000     H          0.11636800000000001           
         H5        1.0000    0.93620   0.08070   0.46470   Biso      1.000     H          0.12343900000000001           
         H6        1.0000    0.01270   0.12890   0.56410   Biso      1.000     H          0.113256  
         H7        1.0000    0.87270   0.23980   0.91010   Biso      1.000     H          0.12751099999999999           
         H8        1.0000    0.89270   0.05680   0.17160   Biso      1.000     H          0.122077  
         H9        1.0000    0.51940   0.19030   0.21670   Biso      1.000     H          0.108928  
         H10       1.0000    0.43410   0.34080   0.17000   Biso      1.000     H          0.125583  
         H11       1.0000    0.30900   0.29530   0.37820   Biso      1.000     H          0.11541199999999999           
         H12       1.0000    0.79500   0.28680   0.01020   Biso      1.000     H          0.11636800000000001           
         H13       1.0000    0.43620   0.41930   0.03530   Biso      1.000     H          0.12343900000000001           
         H14       1.0000    0.51270   0.37110   0.93590   Biso      1.000     H          0.113256  
         H15       1.0000    0.80900   0.20470   0.12180   Biso      1.000     H          0.11541199999999999           
         H16       1.0000    0.48730   0.62890   0.06410   Biso      1.000     H          0.113256  
         H17       1.0000    0.39270   0.44320   0.32840   Biso      1.000     H          0.122077  
         H18       1.0000    0.20500   0.71320   0.98980   Biso      1.000     H          0.11636800000000001           
         H19       1.0000    0.56380   0.58070   0.96470   Biso      1.000     H          0.12343900000000001           
         H20       1.0000    0.60730   0.55680   0.67160   Biso      1.000     H          0.122077  
         H21       1.0000    0.98060   0.69030   0.71670   Biso      1.000     H          0.108928  
         H22       1.0000    0.06590   0.84080   0.67000   Biso      1.000     H          0.125583  
         H23       1.0000    0.62730   0.73980   0.41010   Biso      1.000     H          0.12751099999999999           
         H24       1.0000    0.70500   0.78680   0.51020   Biso      1.000     H          0.11636800000000001           
         H25       1.0000    0.69100   0.70470   0.62180   Biso      1.000     H          0.11541199999999999           
         H26       1.0000    0.98730   0.87110   0.43590   Biso      1.000     H          0.113256  
         H27       1.0000    0.19100   0.79530   0.87820   Biso      1.000     H          0.11541199999999999           
         H28       1.0000    0.10730   0.94320   0.82840   Biso      1.000     H          0.122077  
         H29       1.0000    0.48060   0.80970   0.78330   Biso      1.000     H          0.108928  
         H30       1.0000    0.56590   0.65920   0.83000   Biso      1.000     H          0.125583  
         H31       1.0000    0.12730   0.76020   0.08990   Biso      1.000     H          0.12751099999999999           
         H32       1.0000    0.06380   0.91930   0.53530   Biso      1.000     H          0.12343900000000001           
         O1        1.0000    0.57110   0.23830   0.68651   Biso      1.000     O          -0.697164           
         O2        1.0000    0.69430   0.00781   0.37108   Biso      1.000     O          -0.572875           
         O3        1.0000    0.29080   0.08171   0.38830   Biso      1.000     O          -0.505954           
         O4        1.0000    0.51790   0.00441   0.75922   Biso      1.000     O          -0.6608539999999999           
         O5        1.0000    0.89530   0.03928   0.75117   Biso      1.000     O          -0.656197           
         O6        1.0000    0.54820   0.73481   0.17037   Biso      1.000     O          -0.645559           
         O7        1.0000    0.42890   0.76170   0.31349   Biso      1.000     O          -0.697164           
         O8        1.0000    0.80570   0.50781   0.87108   Biso      1.000     O          -0.572875           
         O9        1.0000    0.20920   0.58171   0.88830   Biso      1.000     O          -0.505954           
         O10       1.0000    0.04820   0.76519   0.32963   Biso      1.000     O          -0.645559           
         O11       1.0000    0.39530   0.46072   0.74883   Biso      1.000     O          -0.656197           
         O12       1.0000    0.95180   0.23481   0.67037   Biso      1.000     O          -0.645559           
         O13       1.0000    0.01790   0.49559   0.74078   Biso      1.000     O          -0.6608539999999999           
         O14       1.0000    0.92890   0.73830   0.18651   Biso      1.000     O          -0.697164           
         O15       1.0000    0.60470   0.53928   0.25117   Biso      1.000     O          -0.656197           
         O16       1.0000    0.70920   0.91829   0.61170   Biso      1.000     O          -0.505954           
         O17       1.0000    0.79080   0.41829   0.11170   Biso      1.000     O          -0.505954           
         O18       1.0000    0.19430   0.49219   0.12892   Biso      1.000     O          -0.572875           
         O19       1.0000    0.07110   0.26170   0.81349   Biso      1.000     O          -0.697164           
         O20       1.0000    0.45180   0.26519   0.82963   Biso      1.000     O          -0.645559           
         O21       1.0000    0.10470   0.96072   0.24883   Biso      1.000     O          -0.656197           
         O22       1.0000    0.48210   0.99559   0.24078   Biso      1.000     O          -0.6608539999999999           
         O23       1.0000    0.30570   0.99219   0.62892   Biso      1.000     O          -0.572875           
         O24       1.0000    0.98210   0.50441   0.25922   Biso      1.000     O          -0.6608539999999999           
         S1        1.0000    0.46171   0.90134   0.60715   Biso      1.000     S          0.9886209999999999  
         S2        1.0000    0.96171   0.59866   0.89285   Biso      1.000     S          0.9886219999999999  
         S3        1.0000    0.53829   0.09866   0.39285   Biso      1.000     S          0.9886209999999999  
         S4        1.0000    0.03829   0.40134   0.10715   Biso      1.000     S          0.9886209999999999  
         Sr1       1.0000    0.24465   0.13348   0.72433   Biso      1.000     Sr          1.494118  
         Sr2       1.0000    0.74465   0.36652   0.77567   Biso      1.000     Sr          1.494118  
         Sr3       1.0000    0.75535   0.86652   0.27567   Biso      1.000     Sr          1.494118  
         Sr4       1.0000    0.25535   0.63348   0.22433   Biso      1.000     Sr          1.494118 