
##########################################################################
#               Crystallographic Information Format file
#               Produced by PyCifRW module
#
#  This is a CIF file.  CIF has been adopted by the International
#  Union of Crystallography as the standard for data archiving and
#  transmission.
#
#  For information on this file format, follow the CIF links at
#  http://www.iucr.org
##########################################################################

data_image0

_cell_length_a                          9.746
_cell_length_b                          9.746
_cell_length_c                          9.746
_cell_angle_alpha                       79.5616
_cell_angle_beta                        79.5616
_cell_angle_gamma                       79.5616
_symmetry_space_group_name_H-M          'P 1'
_symmetry_int_tables_number             1
loop_
  _symmetry_equiv_pos_as_xyz
         'x, y, z' 
loop_
  _atom_site_label
  _atom_site_occupancy
  _atom_site_fract_x
  _atom_site_fract_y
  _atom_site_fract_z
  _atom_site_thermal_displace_type
  _atom_site_B_iso_or_equiv
  _atom_site_type_symbol
  _atom_site_charge
         C1        1.0000    0.50055   0.00000   0.49945   Biso      1.000     C          -0.171438           
         C2        1.0000    0.36359   0.99979   0.47989   Biso      1.000     C          0.171159  
         C3        1.0000    0.33335   0.99625   0.33445   Biso      1.000     C          0.583689  
         C4        1.0000    0.47989   0.36359   0.99979   Biso      1.000     C          0.171159  
         C5        1.0000    0.33445   0.33335   0.99625   Biso      1.000     C          0.583691  
         C6        1.0000    0.52011   0.00021   0.63641   Biso      1.000     C          0.171159  
         C7        1.0000    0.66555   0.00375   0.66665   Biso      1.000     C          0.583689  
         C8        1.0000    0.00021   0.63641   0.52011   Biso      1.000     C          0.17116099999999998           
         C9        1.0000    0.00375   0.66665   0.66555   Biso      1.000     C          0.583691  
         C10       1.0000    0.63641   0.52011   0.00021   Biso      1.000     C          0.171159  
         C11       1.0000    0.66665   0.66555   0.00375   Biso      1.000     C          0.583691  
         C12       1.0000    0.49945   0.50055   0.00000   Biso      1.000     C          -0.171441           
         C13       1.0000    0.71835   0.28165   0.00000   Biso      1.000     C          0.5909979999999999  
         C14       1.0000    0.00000   0.49945   0.50055   Biso      1.000     C          -0.17145  
         C15       1.0000    0.00000   0.71835   0.28165   Biso      1.000     C          0.591001  
         C16       1.0000    0.28165   0.00000   0.71835   Biso      1.000     C          0.591001  
         C17       1.0000    0.99625   0.33445   0.33335   Biso      1.000     C          0.5836899999999999  
         C18       1.0000    0.99979   0.47989   0.36359   Biso      1.000     C          0.17116199999999998           
         Eu1       1.0000    0.50000   0.01164   0.98836   Biso      1.000     Eu          1.329828  
         Eu2       1.0000    0.01164   0.98836   0.50000   Biso      1.000     Eu          1.329827  
         Eu3       1.0000    0.98836   0.50000   0.01164   Biso      1.000     Eu          1.3298299999999998  
         H1        1.0000    0.00000   0.42495   0.57505   Biso      1.000     H          0.157893  
         H2        1.0000    0.42495   0.57505   0.00000   Biso      1.000     H          0.15789   
         H3        1.0000    0.57505   0.00000   0.42495   Biso      1.000     H          0.157891  
         N1        1.0000    0.99932   0.58412   0.25512   Biso      1.000     N          -0.394285           
         N2        1.0000    0.25512   0.99932   0.58412   Biso      1.000     N          -0.394281           
         N3        1.0000    0.58412   0.25512   0.99932   Biso      1.000     N          -0.394283           
         N4        1.0000    0.00068   0.74488   0.41588   Biso      1.000     N          -0.394284           
         N5        1.0000    0.74488   0.41588   0.00068   Biso      1.000     N          -0.394283           
         N6        1.0000    0.41588   0.00068   0.74488   Biso      1.000     N          -0.394281           
         O1        1.0000    0.42994   0.01464   0.23384   Biso      1.000     O          -0.573609           
         O2        1.0000    0.97248   0.32578   0.21288   Biso      1.000     O          -0.574879           
         O3        1.0000    0.81895   0.18105   0.00000   Biso      1.000     O          -0.331432           
         O4        1.0000    0.01464   0.23384   0.42994   Biso      1.000     O          -0.573607           
         O5        1.0000    0.21288   0.97248   0.32578   Biso      1.000     O          -0.574878           
         O6        1.0000    0.32578   0.21288   0.97248   Biso      1.000     O          -0.5748810000000001           
         O7        1.0000    0.78712   0.67422   0.02752   Biso      1.000     O          -0.5748800000000001           
         O8        1.0000    0.67422   0.02752   0.78712   Biso      1.000     O          -0.574879           
         O9        1.0000    0.76616   0.98536   0.57006   Biso      1.000     O          -0.573609           
         O10       1.0000    0.02752   0.78712   0.67422   Biso      1.000     O          -0.5748800000000001           
         O11       1.0000    0.98536   0.57006   0.76616   Biso      1.000     O          -0.573607           
         O12       1.0000    0.57006   0.76616   0.98536   Biso      1.000     O          -0.5736100000000001           
         O13       1.0000    0.00000   0.81895   0.18105   Biso      1.000     O          -0.331435           
         O14       1.0000    0.23384   0.42994   0.01464   Biso      1.000     O          -0.5736100000000001           
         O15       1.0000    0.18105   0.00000   0.81895   Biso      1.000     O          -0.331439 