
##########################################################################
#               Crystallographic Information Format file
#               Produced by PyCifRW module
#
#  This is a CIF file.  CIF has been adopted by the International
#  Union of Crystallography as the standard for data archiving and
#  transmission.
#
#  For information on this file format, follow the CIF links at
#  http://www.iucr.org
##########################################################################

data_image0

_cell_length_a                          7.3183
_cell_length_b                          6.8119
_cell_length_c                          13.7846
_cell_angle_alpha                       90
_cell_angle_beta                        90
_cell_angle_gamma                       90
_symmetry_space_group_name_H-M          'P 1'
_symmetry_int_tables_number             1
loop_
  _symmetry_equiv_pos_as_xyz
         'x, y, z' 
loop_
  _atom_site_label
  _atom_site_occupancy
  _atom_site_fract_x
  _atom_site_fract_y
  _atom_site_fract_z
  _atom_site_thermal_displace_type
  _atom_site_B_iso_or_equiv
  _atom_site_type_symbol
  _atom_site_charge
         Zn1       1.0000    0.81400   0.25000   0.41134   Biso      1.000     Zn          0.949     
         Zn2       1.0000    0.18600   0.75000   0.58866   Biso      1.000     Zn          0.949     
         Zn3       1.0000    0.68600   0.75000   0.91134   Biso      1.000     Zn          0.949     
         Zn4       1.0000    0.31400   0.25000   0.08866   Biso      1.000     Zn          0.949     
         Zn5       1.0000    0.50000   0.00000   0.50000   Biso      1.000     Zn          0.880728  
         Zn6       1.0000    0.00000   0.00000   0.00000   Biso      1.000     Zn          0.880728  
         Zn7       1.0000    0.50000   0.50000   0.50000   Biso      1.000     Zn          0.880726  
         Zn8       1.0000    0.00000   0.50000   0.00000   Biso      1.000     Zn          0.880726  
         S1        1.0000    0.87481   0.75000   0.42913   Biso      1.000     S          1.438234  
         S2        1.0000    0.12519   0.25000   0.57087   Biso      1.000     S          1.438233  
         S3        1.0000    0.62519   0.25000   0.92913   Biso      1.000     S          1.438234  
         S4        1.0000    0.37481   0.75000   0.07087   Biso      1.000     S          1.438233  
         O1        1.0000    0.65158   0.25000   0.52613   Biso      1.000     O          -0.832644           
         O2        1.0000    0.34842   0.75000   0.47387   Biso      1.000     O          -0.832644           
         O3        1.0000    0.84842   0.75000   0.02613   Biso      1.000     O          -0.832644           
         O4        1.0000    0.15158   0.25000   0.97387   Biso      1.000     O          -0.832644           
         O5        1.0000    0.75544   0.92824   0.41367   Biso      1.000     O          -0.689934           
         O6        1.0000    0.24456   0.07176   0.58633   Biso      1.000     O          -0.689934           
         O7        1.0000    0.74456   0.07176   0.91367   Biso      1.000     O          -0.689934           
         O8        1.0000    0.25544   0.92824   0.08633   Biso      1.000     O          -0.689934           
         O9        1.0000    0.24456   0.42824   0.58633   Biso      1.000     O          -0.689935           
         O10       1.0000    0.75544   0.57176   0.41367   Biso      1.000     O          -0.689935           
         O11       1.0000    0.25544   0.57176   0.08633   Biso      1.000     O          -0.689935           
         O12       1.0000    0.74456   0.42824   0.91367   Biso      1.000     O          -0.689935           
         O13       1.0000    0.02696   0.75000   0.35847   Biso      1.000     O          -0.642452           
         O14       1.0000    0.97304   0.25000   0.64153   Biso      1.000     O          -0.642452           
         O15       1.0000    0.47304   0.25000   0.85847   Biso      1.000     O          -0.642452           
         O16       1.0000    0.52696   0.75000   0.14153   Biso      1.000     O          -0.642452           
         O17       1.0000    0.93868   0.75000   0.53232   Biso      1.000     O          -0.644691           
         O18       1.0000    0.06132   0.25000   0.46768   Biso      1.000     O          -0.644691           
         O19       1.0000    0.56132   0.25000   0.03232   Biso      1.000     O          -0.644691           
         O20       1.0000    0.43868   0.75000   0.96768   Biso      1.000     O          -0.644691           
         H1        1.0000    0.73424   0.25000   0.58237   Biso      1.000     H          0.393799  
         H2        1.0000    0.26576   0.75000   0.41763   Biso      1.000     H          0.393799  
         H3        1.0000    0.76576   0.75000   0.08237   Biso      1.000     H          0.393799  
         H4        1.0000    0.23424   0.25000   0.91763   Biso      1.000     H          0.393799  
         H5        1.0000    0.36268   0.94015   0.26239   Biso      1.000     H          0.117969  
         H6        1.0000    0.63732   0.05985   0.73761   Biso      1.000     H          0.117969  
         H7        1.0000    0.13732   0.05985   0.76239   Biso      1.000     H          0.117969  
         H8        1.0000    0.86268   0.94015   0.23761   Biso      1.000     H          0.117969  
         H9        1.0000    0.63732   0.44015   0.73761   Biso      1.000     H          0.117969  
         H10       1.0000    0.36268   0.55985   0.26239   Biso      1.000     H          0.117969  
         H11       1.0000    0.86268   0.55985   0.23761   Biso      1.000     H          0.117969  
         H12       1.0000    0.13732   0.44015   0.76239   Biso      1.000     H          0.117969  
         N1        1.0000    0.41625   0.14711   0.37617   Biso      1.000     N          -0.212476           
         N2        1.0000    0.58375   0.85289   0.62383   Biso      1.000     N          -0.212476           
         N3        1.0000    0.08375   0.85289   0.87617   Biso      1.000     N          -0.212476           
         N4        1.0000    0.91625   0.14711   0.12383   Biso      1.000     N          -0.212476           
         N5        1.0000    0.58375   0.64711   0.62383   Biso      1.000     N          -0.212468           
         N6        1.0000    0.41625   0.35289   0.37617   Biso      1.000     N          -0.212468           
         N7        1.0000    0.91625   0.35289   0.12383   Biso      1.000     N          -0.212468           
         N8        1.0000    0.08375   0.64711   0.87617   Biso      1.000     N          -0.212468           
         N9        1.0000    0.34069   0.25000   0.22881   Biso      1.000     N          -0.335276           
         N10       1.0000    0.65931   0.75000   0.77119   Biso      1.000     N          -0.335276           
         N11       1.0000    0.15931   0.75000   0.72881   Biso      1.000     N          -0.335276           
         N12       1.0000    0.84069   0.25000   0.27119   Biso      1.000     N          -0.335276           
         C1        1.0000    0.37054   0.09169   0.28682   Biso      1.000     C          0.18109   
         C2        1.0000    0.62946   0.90831   0.71318   Biso      1.000     C          0.18109   
         C3        1.0000    0.12946   0.90831   0.78682   Biso      1.000     C          0.18109   
         C4        1.0000    0.87054   0.09169   0.21318   Biso      1.000     C          0.18109   
         C5        1.0000    0.62946   0.59169   0.71318   Biso      1.000     C          0.181089  
         C6        1.0000    0.37054   0.40831   0.28682   Biso      1.000     C          0.181089  
         C7        1.0000    0.87054   0.40831   0.21318   Biso      1.000     C          0.181089  
         C8        1.0000    0.12946   0.59169   0.78682   Biso      1.000     C          0.181089 