
##########################################################################
#               Crystallographic Information Format file
#               Produced by PyCifRW module
#
#  This is a CIF file.  CIF has been adopted by the International
#  Union of Crystallography as the standard for data archiving and
#  transmission.
#
#  For information on this file format, follow the CIF links at
#  http://www.iucr.org
##########################################################################

data_image0

_cell_length_a                          6.9235
_cell_length_b                          7.4268
_cell_length_c                          8.2517
_cell_angle_alpha                       90.118
_cell_angle_beta                        109.774
_cell_angle_gamma                       93.329
_symmetry_space_group_name_H-M          'P 1'
_symmetry_int_tables_number             1
loop_
  _symmetry_equiv_pos_as_xyz
         'x, y, z' 
loop_
  _atom_site_label
  _atom_site_occupancy
  _atom_site_fract_x
  _atom_site_fract_y
  _atom_site_fract_z
  _atom_site_thermal_displace_type
  _atom_site_B_iso_or_equiv
  _atom_site_type_symbol
  _atom_site_charge
         C1        1.0000    0.41870   0.60820   0.85620   Biso      1.000     C          -0.0416   
         C2        1.0000    0.54210   0.32300   0.97820   Biso      1.000     C          -0.122873           
         C3        1.0000    0.58130   0.39180   0.14380   Biso      1.000     C          -0.0416   
         C4        1.0000    0.54030   0.56990   0.16740   Biso      1.000     C          -0.051846           
         C5        1.0000    0.58090   0.66200   0.33970   Biso      1.000     C          0.624604  
         C6        1.0000    0.64740   0.26030   0.28810   Biso      1.000     C          0.633835  
         C7        1.0000    0.45790   0.67700   0.02180   Biso      1.000     C          -0.122874           
         C8        1.0000    0.45970   0.43010   0.83260   Biso      1.000     C          -0.051846           
         C9        1.0000    0.41910   0.33800   0.66030   Biso      1.000     C          0.624604  
         C10       1.0000    0.35260   0.73970   0.71190   Biso      1.000     C          0.633835  
         H1        1.0000    0.57060   0.20450   0.96300   Biso      1.000     H          0.137656  
         H2        1.0000    0.42940   0.79550   0.03700   Biso      1.000     H          0.137656  
         O1        1.0000    0.17237   0.72976   0.60569   Biso      1.000     O          -0.577728           
         O2        1.0000    0.48948   0.85848   0.71109   Biso      1.000     O          -0.53861  
         O3        1.0000    0.74538   0.63864   0.46217   Biso      1.000     O          -0.577617           
         O4        1.0000    0.44762   0.76601   0.35007   Biso      1.000     O          -0.548882           
         O5        1.0000    0.25462   0.36136   0.53783   Biso      1.000     O          -0.577617           
         O6        1.0000    0.51052   0.14152   0.28891   Biso      1.000     O          -0.53861  
         O7        1.0000    0.55238   0.23399   0.64993   Biso      1.000     O          -0.548882           
         O8        1.0000    0.82763   0.27024   0.39431   Biso      1.000     O          -0.577728           
         Zn1       1.0000    0.00000   0.50000   0.50000   Biso      1.000     Zn          1.065539  
         Zn2       1.0000    0.50000   0.00000   0.50000   Biso      1.000     Zn          1.060585 