
##########################################################################
#               Crystallographic Information Format file
#               Produced by PyCifRW module
#
#  This is a CIF file.  CIF has been adopted by the International
#  Union of Crystallography as the standard for data archiving and
#  transmission.
#
#  For information on this file format, follow the CIF links at
#  http://www.iucr.org
##########################################################################

data_image0

_cell_length_a                          10.1721
_cell_length_b                          11.6415
_cell_length_c                          16.092
_cell_angle_alpha                       90
_cell_angle_beta                        90
_cell_angle_gamma                       105.706
_symmetry_space_group_name_H-M          'P 1'
_symmetry_int_tables_number             1
loop_
  _symmetry_equiv_pos_as_xyz
         'x, y, z' 
loop_
  _atom_site_label
  _atom_site_occupancy
  _atom_site_fract_x
  _atom_site_fract_y
  _atom_site_fract_z
  _atom_site_thermal_displace_type
  _atom_site_B_iso_or_equiv
  _atom_site_type_symbol
  _atom_site_charge
         C1        1.0000    0.86720   0.23810   0.28770   Biso      1.000     C          -0.097811           
         C2        1.0000    0.36300   0.24930   0.00689   Biso      1.000     C          0.606478  
         C3        1.0000    0.49850   0.34170   0.69215   Biso      1.000     C          -0.040931           
         C4        1.0000    0.08250   0.42410   0.99160   Biso      1.000     C          -0.13052  
         C5        1.0000    0.97080   0.41690   0.37571   Biso      1.000     C          0.647566  
         C6        1.0000    0.60680   0.83100   0.22582   Biso      1.000     C          -0.119174           
         C7        1.0000    0.02920   0.58310   0.62429   Biso      1.000     C          0.647566  
         C8        1.0000    0.54850   0.56240   0.07220   Biso      1.000     C          -0.11582200000000001          
         C9        1.0000    0.98750   0.93160   0.87150   Biso      1.000     C          0.6377010000000001  
         C10       1.0000    0.86110   0.45360   0.01170   Biso      1.000     C          -0.088371           
         C11       1.0000    0.94330   0.37670   0.00270   Biso      1.000     C          -0.019172           
         C12       1.0000    0.91750   0.57590   0.00840   Biso      1.000     C          -0.13052  
         C13       1.0000    0.95150   0.93760   0.57220   Biso      1.000     C          -0.11582200000000001          
         C14       1.0000    0.47970   0.44220   0.07630   Biso      1.000     C          -0.10391600000000001          
         C15       1.0000    0.61880   0.25560   0.50508   Biso      1.000     C          0.598125  
         C16       1.0000    0.43230   0.38010   0.00410   Biso      1.000     C          -0.011226           
         C17       1.0000    0.38120   0.74440   0.49492   Biso      1.000     C          0.598124  
         C18       1.0000    0.87630   0.15470   0.22890   Biso      1.000     C          -0.08841  
         C19       1.0000    0.47080   0.91690   0.12429   Biso      1.000     C          0.647566  
         C20       1.0000    0.52030   0.55780   0.92370   Biso      1.000     C          -0.10391500000000001          
         C21       1.0000    0.97970   0.94220   0.42370   Biso      1.000     C          -0.10391500000000001          
         C22       1.0000    0.13890   0.54640   0.98830   Biso      1.000     C          -0.088372           
         C23       1.0000    0.88350   0.75160   0.78523   Biso      1.000     C          -0.107557           
         C24       1.0000    0.45150   0.43760   0.92780   Biso      1.000     C          -0.11582  
         C25       1.0000    0.00150   0.15830   0.19215   Biso      1.000     C          -0.040931           
         C26       1.0000    0.89320   0.66900   0.72582   Biso      1.000     C          -0.119172           
         C27       1.0000    0.12370   0.84530   0.77110   Biso      1.000     C          -0.088411           
         C28       1.0000    0.13700   0.25070   0.50689   Biso      1.000     C          0.606478  
         C29       1.0000    0.98170   0.32750   0.31058   Biso      1.000     C          -0.017552           
         C30       1.0000    0.48170   0.82750   0.18942   Biso      1.000     C          -0.017551           
         C31       1.0000    0.05670   0.62330   0.99730   Biso      1.000     C          -0.019172           
         C32       1.0000    0.50150   0.65830   0.30785   Biso      1.000     C          -0.040931           
         C33       1.0000    0.58250   0.92410   0.50840   Biso      1.000     C          -0.13052  
         C34       1.0000    0.01250   0.06840   0.12850   Biso      1.000     C          0.6377010000000001  
         C35       1.0000    0.63280   0.26190   0.78770   Biso      1.000     C          -0.097811           
         C36       1.0000    0.99850   0.84170   0.80785   Biso      1.000     C          -0.04093  
         C37       1.0000    0.51830   0.17250   0.81058   Biso      1.000     C          -0.017552           
         C38       1.0000    0.39320   0.16900   0.77418   Biso      1.000     C          -0.119174           
         C39       1.0000    0.02030   0.05780   0.57630   Biso      1.000     C          -0.10391600000000001          
         C40       1.0000    0.86300   0.74930   0.49311   Biso      1.000     C          0.606477  
         C41       1.0000    0.38350   0.25160   0.71477   Biso      1.000     C          -0.107554           
         C42       1.0000    0.61650   0.74840   0.28523   Biso      1.000     C          -0.107554           
         C43       1.0000    0.36720   0.73810   0.21230   Biso      1.000     C          -0.097811           
         C44       1.0000    0.36110   0.95360   0.48830   Biso      1.000     C          -0.088372           
         C45       1.0000    0.93230   0.88010   0.49590   Biso      1.000     C          -0.011224           
         C46       1.0000    0.63890   0.04640   0.51170   Biso      1.000     C          -0.088372           
         C47       1.0000    0.56770   0.61990   0.99590   Biso      1.000     C          -0.011224           
         C48       1.0000    0.01830   0.67250   0.68942   Biso      1.000     C          -0.017551           
         C49       1.0000    0.11650   0.24840   0.21477   Biso      1.000     C          -0.107556           
         C50       1.0000    0.62370   0.34530   0.72890   Biso      1.000     C          -0.08841  
         C51       1.0000    0.41750   0.07590   0.49160   Biso      1.000     C          -0.13052  
         C52       1.0000    0.11880   0.75560   0.99492   Biso      1.000     C          0.598125  
         C53       1.0000    0.04850   0.06240   0.42780   Biso      1.000     C          -0.115823           
         C54       1.0000    0.10680   0.33100   0.27418   Biso      1.000     C          -0.119171           
         C55       1.0000    0.52920   0.08310   0.87571   Biso      1.000     C          0.647567  
         C56       1.0000    0.55670   0.12330   0.50270   Biso      1.000     C          -0.019172           
         C57       1.0000    0.63700   0.75070   0.99311   Biso      1.000     C          0.606477  
         C58       1.0000    0.48750   0.43160   0.62850   Biso      1.000     C          0.6377010000000001  
         C59       1.0000    0.37630   0.65470   0.27110   Biso      1.000     C          -0.08841  
         C60       1.0000    0.13280   0.76190   0.71230   Biso      1.000     C          -0.09781000000000001          
         C61       1.0000    0.88120   0.24440   0.00508   Biso      1.000     C          0.598125  
         C62       1.0000    0.51250   0.56840   0.37150   Biso      1.000     C          0.6377010000000001  
         C63       1.0000    0.44330   0.87670   0.49730   Biso      1.000     C          -0.019172           
         C64       1.0000    0.06770   0.11990   0.50410   Biso      1.000     C          -0.011224           
         H1        1.0000    0.23240   0.57720   0.98010   Biso      1.000     H          0.11969500000000001           
         H2        1.0000    0.70140   0.40440   0.71360   Biso      1.000     H          0.11751099999999999           
         H3        1.0000    0.71660   0.26550   0.81220   Biso      1.000     H          0.121773  
         H4        1.0000    0.63860   0.87330   0.51380   Biso      1.000     H          0.09749   
         H5        1.0000    0.13860   0.37330   0.98620   Biso      1.000     H          0.09749   
         H6        1.0000    0.21660   0.76550   0.68780   Biso      1.000     H          0.121773  
         H7        1.0000    0.76760   0.42280   0.01990   Biso      1.000     H          0.11969500000000001           
         H8        1.0000    0.73240   0.07720   0.51990   Biso      1.000     H          0.11969500000000001           
         H9        1.0000    0.91820   0.89570   0.62040   Biso      1.000     H          0.109805  
         H10       1.0000    0.03460   0.09650   0.62740   Biso      1.000     H          0.119207  
         H11       1.0000    0.46540   0.40350   0.12740   Biso      1.000     H          0.119207  
         H12       1.0000    0.29860   0.59560   0.28640   Biso      1.000     H          0.11751099999999999           
         H13       1.0000    0.20010   0.25280   0.18970   Biso      1.000     H          0.12022999999999999           
         H14       1.0000    0.18460   0.38970   0.29010   Biso      1.000     H          0.10746700000000001           
         H15       1.0000    0.41820   0.39570   0.87960   Biso      1.000     H          0.109805  
         H16       1.0000    0.70010   0.75280   0.31030   Biso      1.000     H          0.12022999999999999           
         H17       1.0000    0.53460   0.59650   0.87260   Biso      1.000     H          0.119207  
         H18       1.0000    0.78340   0.23450   0.31220   Biso      1.000     H          0.121773  
         H19       1.0000    0.26760   0.92280   0.48010   Biso      1.000     H          0.11969500000000001           
         H20       1.0000    0.28340   0.73450   0.18780   Biso      1.000     H          0.12177400000000001           
         H21       1.0000    0.79990   0.74720   0.81030   Biso      1.000     H          0.12022999999999999           
         H22       1.0000    0.68460   0.88970   0.20990   Biso      1.000     H          0.10746800000000001           
         H23       1.0000    0.79860   0.09560   0.21360   Biso      1.000     H          0.11751099999999999           
         H24       1.0000    0.81540   0.61030   0.70990   Biso      1.000     H          0.10746700000000001           
         H25       1.0000    0.29990   0.24720   0.68970   Biso      1.000     H          0.12022999999999999           
         H26       1.0000    0.86140   0.62670   0.01380   Biso      1.000     H          0.09749   
         H27       1.0000    0.20140   0.90440   0.78640   Biso      1.000     H          0.11751099999999999           
         H28       1.0000    0.96540   0.90350   0.37260   Biso      1.000     H          0.119207  
         H29       1.0000    0.08180   0.10430   0.37960   Biso      1.000     H          0.109806  
         H30       1.0000    0.58180   0.60430   0.12040   Biso      1.000     H          0.109806  
         H31       1.0000    0.31540   0.11030   0.79010   Biso      1.000     H          0.10746800000000001           
         H32       1.0000    0.36140   0.12670   0.48620   Biso      1.000     H          0.09749   
         Li1       1.0000    0.40510   0.31860   0.39950   Biso      1.000     Li          0.872848  
         Li2       1.0000    0.90510   0.81860   0.10050   Biso      1.000     Li          0.872848  
         Li3       1.0000    0.09490   0.18140   0.89950   Biso      1.000     Li          0.872848  
         Li4       1.0000    0.59490   0.68140   0.60050   Biso      1.000     Li          0.872848  
         O1        1.0000    0.40310   0.18340   0.05744   Biso      1.000     O          -0.560992           
         O2        1.0000    0.44050   0.67530   0.53113   Biso      1.000     O          -0.7400260000000001           
         O3        1.0000    0.09690   0.31660   0.55744   Biso      1.000     O          -0.5609930000000001           
         O4        1.0000    0.05950   0.82470   0.03113   Biso      1.000     O          -0.7400260000000001           
         O5        1.0000    0.92260   0.52470   0.58836   Biso      1.000     O          -0.610267           
         O6        1.0000    0.23030   0.79870   0.95860   Biso      1.000     O          -0.5521590000000001           
         O7        1.0000    0.23300   0.29490   0.45706   Biso      1.000     O          -0.740067           
         O8        1.0000    0.87150   0.93350   0.89629   Biso      1.000     O          -0.590729           
         O9        1.0000    0.26700   0.20510   0.95706   Biso      1.000     O          -0.740067           
         O10       1.0000    0.12850   0.06650   0.10371   Biso      1.000     O          -0.590729           
         O11       1.0000    0.26970   0.70130   0.45860   Biso      1.000     O          -0.5521590000000001           
         O12       1.0000    0.59670   0.50560   0.60352   Biso      1.000     O          -0.725475           
         O13       1.0000    0.76970   0.20130   0.04140   Biso      1.000     O          -0.5521590000000001           
         O14       1.0000    0.59690   0.81660   0.94256   Biso      1.000     O          -0.560992           
         O15       1.0000    0.85350   0.42870   0.39095   Biso      1.000     O          -0.604888           
         O16       1.0000    0.07740   0.47530   0.41164   Biso      1.000     O          -0.610267           
         O17       1.0000    0.64650   0.07130   0.89095   Biso      1.000     O          -0.604888           
         O18       1.0000    0.14650   0.57130   0.60905   Biso      1.000     O          -0.604887           
         O19       1.0000    0.40330   0.49440   0.39648   Biso      1.000     O          -0.725474           
         O20       1.0000    0.73300   0.79490   0.04294   Biso      1.000     O          -0.740067           
         O21       1.0000    0.90310   0.68340   0.44256   Biso      1.000     O          -0.560992           
         O22       1.0000    0.55950   0.32470   0.46887   Biso      1.000     O          -0.7400260000000001           
         O23       1.0000    0.62850   0.56650   0.39629   Biso      1.000     O          -0.590729           
         O24       1.0000    0.57740   0.97530   0.08836   Biso      1.000     O          -0.610267           
         O25       1.0000    0.73030   0.29870   0.54140   Biso      1.000     O          -0.5521590000000001           
         O26       1.0000    0.35350   0.92870   0.10905   Biso      1.000     O          -0.604888           
         O27       1.0000    0.90330   0.99440   0.10352   Biso      1.000     O          -0.725475           
         O28       1.0000    0.94050   0.17530   0.96887   Biso      1.000     O          -0.7400260000000001           
         O29       1.0000    0.42260   0.02470   0.91164   Biso      1.000     O          -0.610267           
         O30       1.0000    0.76700   0.70510   0.54294   Biso      1.000     O          -0.740067           
         O31       1.0000    0.09670   0.00560   0.89648   Biso      1.000     O          -0.725475           
         O32       1.0000    0.37150   0.43350   0.60371   Biso      1.000     O          -0.590729           
         Y1        1.0000    0.74927   0.99915   0.99702   Biso      1.000     Y          1.789161  
         Y2        1.0000    0.25073   0.00085   0.00298   Biso      1.000     Y          1.789161  
         Y3        1.0000    0.24927   0.49915   0.50298   Biso      1.000     Y          1.789161  
         Y4        1.0000    0.75073   0.50085   0.49702   Biso      1.000     Y          1.789161 