
##########################################################################
#               Crystallographic Information Format file
#               Produced by PyCifRW module
#
#  This is a CIF file.  CIF has been adopted by the International
#  Union of Crystallography as the standard for data archiving and
#  transmission.
#
#  For information on this file format, follow the CIF links at
#  http://www.iucr.org
##########################################################################

data_image0

_cell_length_a                          7.3053
_cell_length_b                          17.5056
_cell_length_c                          12.6731
_cell_angle_alpha                       90
_cell_angle_beta                        90
_cell_angle_gamma                       90
_symmetry_space_group_name_H-M          'P 1'
_symmetry_int_tables_number             1
loop_
  _symmetry_equiv_pos_as_xyz
         'x, y, z' 
loop_
  _atom_site_label
  _atom_site_occupancy
  _atom_site_fract_x
  _atom_site_fract_y
  _atom_site_fract_z
  _atom_site_thermal_displace_type
  _atom_site_B_iso_or_equiv
  _atom_site_type_symbol
  _atom_site_charge
         C1        1.0000    0.18510   0.42700   0.25330   Biso      1.000     C          -0.069278           
         C2        1.0000    0.36970   0.50628   0.71150   Biso      1.000     C          -0.136061           
         C3        1.0000    0.43530   0.50120   0.60560   Biso      1.000     C          0.055329  
         C4        1.0000    0.50220   0.63890   0.37130   Biso      1.000     C          0.661726  
         C5        1.0000    0.99780   0.13890   0.87130   Biso      1.000     C          0.661726  
         C6        1.0000    0.93530   0.50120   0.89440   Biso      1.000     C          0.055329  
         C7        1.0000    0.86970   0.50628   0.78850   Biso      1.000     C          -0.136061           
         C8        1.0000    0.99750   0.43273   0.93870   Biso      1.000     C          -0.127394           
         C9        1.0000    0.05910   0.43037   0.04330   Biso      1.000     C          0.053406  
         C10       1.0000    0.11820   0.36089   0.09210   Biso      1.000     C          -0.152884           
         C11       1.0000    0.17780   0.35960   0.19270   Biso      1.000     C          -0.086068           
         C12       1.0000    0.06470   0.00120   0.10560   Biso      1.000     C          0.055329  
         C13       1.0000    0.13030   0.49372   0.21150   Biso      1.000     C          -0.136034           
         C14       1.0000    0.06470   0.49880   0.10560   Biso      1.000     C          0.055326  
         C15       1.0000    0.99780   0.36110   0.87130   Biso      1.000     C          0.661727  
         C16       1.0000    0.94090   0.56963   0.95670   Biso      1.000     C          0.053404  
         C17       1.0000    0.13030   0.00628   0.21150   Biso      1.000     C          -0.136061           
         C18       1.0000    0.17780   0.14040   0.19270   Biso      1.000     C          -0.086095           
         C19       1.0000    0.11820   0.13911   0.09210   Biso      1.000     C          -0.152859           
         C20       1.0000    0.81490   0.57300   0.74670   Biso      1.000     C          -0.069248           
         C21       1.0000    0.82220   0.64040   0.80730   Biso      1.000     C          -0.086095           
         C22       1.0000    0.50250   0.93273   0.43870   Biso      1.000     C          -0.127394           
         C23       1.0000    0.44090   0.93037   0.54330   Biso      1.000     C          0.053407  
         C24       1.0000    0.38180   0.86089   0.59210   Biso      1.000     C          -0.152884           
         C25       1.0000    0.32220   0.85960   0.69270   Biso      1.000     C          -0.086068           
         C26       1.0000    0.31490   0.92700   0.75330   Biso      1.000     C          -0.069279           
         C27       1.0000    0.36970   0.99372   0.71150   Biso      1.000     C          -0.136033           
         C28       1.0000    0.43530   0.99880   0.60560   Biso      1.000     C          0.055326  
         C29       1.0000    0.50220   0.86110   0.37130   Biso      1.000     C          0.661727  
         C30       1.0000    0.05910   0.06963   0.04330   Biso      1.000     C          0.053404  
         C31       1.0000    0.99750   0.06727   0.93870   Biso      1.000     C          -0.127394           
         C32       1.0000    0.18510   0.07300   0.25330   Biso      1.000     C          -0.069249           
         C33       1.0000    0.32220   0.64040   0.69270   Biso      1.000     C          -0.086095           
         C34       1.0000    0.31490   0.57300   0.75330   Biso      1.000     C          -0.069249           
         C35       1.0000    0.44090   0.56963   0.54330   Biso      1.000     C          0.053404  
         C36       1.0000    0.49750   0.06727   0.56130   Biso      1.000     C          -0.127394           
         C37       1.0000    0.55910   0.06963   0.45670   Biso      1.000     C          0.053407  
         C38       1.0000    0.61820   0.13911   0.40790   Biso      1.000     C          -0.152883           
         C39       1.0000    0.67780   0.14040   0.30730   Biso      1.000     C          -0.086068           
         C40       1.0000    0.68510   0.07300   0.24670   Biso      1.000     C          -0.069279           
         C41       1.0000    0.63030   0.00628   0.28850   Biso      1.000     C          -0.136033           
         C42       1.0000    0.56470   0.00120   0.39440   Biso      1.000     C          0.055326  
         C43       1.0000    0.49780   0.13890   0.62870   Biso      1.000     C          0.661726  
         C44       1.0000    0.49780   0.36110   0.62870   Biso      1.000     C          0.661727  
         C45       1.0000    0.56470   0.49880   0.39440   Biso      1.000     C          0.055329  
         C46       1.0000    0.63030   0.49372   0.28850   Biso      1.000     C          -0.136061           
         C47       1.0000    0.68510   0.42700   0.24670   Biso      1.000     C          -0.069248           
         C48       1.0000    0.67780   0.35960   0.30730   Biso      1.000     C          -0.086095           
         C49       1.0000    0.00250   0.93273   0.06130   Biso      1.000     C          -0.127394           
         C50       1.0000    0.38180   0.63911   0.59210   Biso      1.000     C          -0.152859           
         C51       1.0000    0.94090   0.93037   0.95670   Biso      1.000     C          0.053404  
         C52       1.0000    0.82220   0.85960   0.80730   Biso      1.000     C          -0.086095           
         C53       1.0000    0.50250   0.56727   0.43870   Biso      1.000     C          -0.127394           
         C54       1.0000    0.00220   0.63890   0.12870   Biso      1.000     C          0.661726  
         C55       1.0000    0.88180   0.86089   0.90790   Biso      1.000     C          -0.152859           
         C56       1.0000    0.49750   0.43273   0.56130   Biso      1.000     C          -0.127394           
         C57       1.0000    0.55910   0.43037   0.45670   Biso      1.000     C          0.053404  
         C58       1.0000    0.00250   0.56727   0.06130   Biso      1.000     C          -0.127394           
         C59       1.0000    0.00220   0.86110   0.12870   Biso      1.000     C          0.661726  
         C60       1.0000    0.93530   0.99880   0.89440   Biso      1.000     C          0.055329  
         C61       1.0000    0.86970   0.99372   0.78850   Biso      1.000     C          -0.136061           
         C62       1.0000    0.81490   0.92700   0.74670   Biso      1.000     C          -0.069249           
         C63       1.0000    0.61820   0.36089   0.40790   Biso      1.000     C          -0.152859           
         C64       1.0000    0.88180   0.63911   0.90790   Biso      1.000     C          -0.15286  
         H1        1.0000    0.61700   0.31590   0.44780   Biso      1.000     H          0.109481  
         H2        1.0000    0.11700   0.18410   0.05220   Biso      1.000     H          0.109481  
         H3        1.0000    0.21540   0.18690   0.22290   Biso      1.000     H          0.100523  
         H4        1.0000    0.22800   0.07490   0.32340   Biso      1.000     H          0.106917  
         H5        1.0000    0.13480   0.96170   0.25270   Biso      1.000     H          0.116183  
         H6        1.0000    0.71540   0.31310   0.27710   Biso      1.000     H          0.100523  
         H7        1.0000    0.63480   0.53830   0.24730   Biso      1.000     H          0.116183  
         H8        1.0000    0.27200   0.92510   0.82340   Biso      1.000     H          0.10692   
         H9        1.0000    0.86520   0.46170   0.74730   Biso      1.000     H          0.116183  
         H10       1.0000    0.61700   0.18410   0.44780   Biso      1.000     H          0.109482  
         H11       1.0000    0.71540   0.18690   0.27710   Biso      1.000     H          0.100522  
         H12       1.0000    0.72800   0.07490   0.17660   Biso      1.000     H          0.106919  
         H13       1.0000    0.63480   0.96170   0.24730   Biso      1.000     H          0.116182  
         H14       1.0000    0.77200   0.57490   0.67660   Biso      1.000     H          0.106918  
         H15       1.0000    0.78460   0.68690   0.77710   Biso      1.000     H          0.100523  
         H16       1.0000    0.88300   0.81590   0.94780   Biso      1.000     H          0.10948   
         H17       1.0000    0.78460   0.81310   0.77710   Biso      1.000     H          0.100523  
         H18       1.0000    0.77200   0.92510   0.67660   Biso      1.000     H          0.106917  
         H19       1.0000    0.36520   0.03830   0.75270   Biso      1.000     H          0.116182  
         H20       1.0000    0.86520   0.03830   0.74730   Biso      1.000     H          0.116183  
         H21       1.0000    0.38300   0.68410   0.55220   Biso      1.000     H          0.109481  
         H22       1.0000    0.28460   0.68690   0.72290   Biso      1.000     H          0.100523  
         H23       1.0000    0.27200   0.57490   0.82340   Biso      1.000     H          0.106918  
         H24       1.0000    0.36520   0.46170   0.75270   Biso      1.000     H          0.116184  
         H25       1.0000    0.72800   0.42510   0.17660   Biso      1.000     H          0.106918  
         H26       1.0000    0.11700   0.31590   0.05220   Biso      1.000     H          0.109482  
         H27       1.0000    0.21540   0.31310   0.22290   Biso      1.000     H          0.100522  
         H28       1.0000    0.22800   0.42510   0.32340   Biso      1.000     H          0.106919  
         H29       1.0000    0.13480   0.53830   0.25270   Biso      1.000     H          0.116182  
         H30       1.0000    0.38300   0.81590   0.55220   Biso      1.000     H          0.109482  
         H31       1.0000    0.28460   0.81310   0.72290   Biso      1.000     H          0.100522  
         H32       1.0000    0.88300   0.68410   0.94780   Biso      1.000     H          0.109481  
         O1        1.0000    0.84920   0.66382   0.15647   Biso      1.000     O          -0.567385           
         O2        1.0000    0.34400   0.16631   0.64993   Biso      1.000     O          -0.566533           
         O3        1.0000    0.34920   0.83618   0.34353   Biso      1.000     O          -0.567385           
         O4        1.0000    0.65080   0.33618   0.65647   Biso      1.000     O          -0.567385           
         O5        1.0000    0.65080   0.16382   0.65647   Biso      1.000     O          -0.567385           
         O6        1.0000    0.15600   0.83369   0.14993   Biso      1.000     O          -0.566532           
         O7        1.0000    0.84920   0.83618   0.15647   Biso      1.000     O          -0.567386           
         O8        1.0000    0.65600   0.66631   0.35007   Biso      1.000     O          -0.566533           
         O9        1.0000    0.15600   0.66631   0.14993   Biso      1.000     O          -0.566533           
         O10       1.0000    0.84400   0.33369   0.85007   Biso      1.000     O          -0.566532           
         O11       1.0000    0.34920   0.66382   0.34353   Biso      1.000     O          -0.567385           
         O12       1.0000    0.65600   0.83369   0.35007   Biso      1.000     O          -0.566532           
         O13       1.0000    0.84400   0.16631   0.85007   Biso      1.000     O          -0.566532           
         O14       1.0000    0.15080   0.16382   0.84353   Biso      1.000     O          -0.567385           
         O15       1.0000    0.34400   0.33369   0.64993   Biso      1.000     O          -0.566532           
         O16       1.0000    0.15080   0.33618   0.84353   Biso      1.000     O          -0.567385           
         Zn1       1.0000    0.75620   0.75000   0.25358   Biso      1.000     Zn          1.004022  
         Zn2       1.0000    0.24380   0.25000   0.74642   Biso      1.000     Zn          1.004022  
         Zn3       1.0000    0.25620   0.75000   0.24642   Biso      1.000     Zn          1.004023  
         Zn4       1.0000    0.74380   0.25000   0.75358   Biso      1.000     Zn          1.004022 