
##########################################################################
#               Crystallographic Information Format file
#               Produced by PyCifRW module
#
#  This is a CIF file.  CIF has been adopted by the International
#  Union of Crystallography as the standard for data archiving and
#  transmission.
#
#  For information on this file format, follow the CIF links at
#  http://www.iucr.org
##########################################################################

data_image0

_cell_length_a                          22.2549
_cell_length_b                          9.4868
_cell_length_c                          15.7184
_cell_angle_alpha                       90
_cell_angle_beta                        91.476
_cell_angle_gamma                       90
_symmetry_space_group_name_H-M          'P 1'
_symmetry_int_tables_number             1
loop_
  _symmetry_equiv_pos_as_xyz
         'x, y, z' 
loop_
  _atom_site_label
  _atom_site_occupancy
  _atom_site_fract_x
  _atom_site_fract_y
  _atom_site_fract_z
  _atom_site_thermal_displace_type
  _atom_site_B_iso_or_equiv
  _atom_site_type_symbol
  _atom_site_charge
         Ag1       1.0000    0.32965   0.18669   0.60842   Biso      1.000     Ag          0.214024  
         Ag2       1.0000    0.00000   0.92475   0.25000   Biso      1.000     Ag          0.2069    
         Ag3       1.0000    0.50000   0.42475   0.25000   Biso      1.000     Ag          0.206901  
         Ag4       1.0000    0.82965   0.31331   0.10842   Biso      1.000     Ag          0.214022  
         Ag5       1.0000    0.32965   0.81331   0.10842   Biso      1.000     Ag          0.214023  
         Ag6       1.0000    0.17035   0.31331   0.39158   Biso      1.000     Ag          0.214023  
         Ag7       1.0000    0.50000   0.57525   0.75000   Biso      1.000     Ag          0.2069    
         Ag8       1.0000    0.67035   0.81331   0.39158   Biso      1.000     Ag          0.214023  
         Ag9       1.0000    0.17035   0.68669   0.89158   Biso      1.000     Ag          0.214024  
         Ag10      1.0000    0.67035   0.18669   0.89158   Biso      1.000     Ag          0.214024  
         Ag11      1.0000    0.82965   0.68669   0.60842   Biso      1.000     Ag          0.214024  
         Ag12      1.0000    0.00000   0.07525   0.75000   Biso      1.000     Ag          0.206898  
         C1        1.0000    0.61232   0.71700   0.65321   Biso      1.000     C          -0.09073  
         C2        1.0000    0.03482   0.85440   0.06598   Biso      1.000     C          -0.049408           
         C3        1.0000    0.11232   0.78300   0.15321   Biso      1.000     C          -0.090731           
         C4        1.0000    0.14105   0.72700   0.08378   Biso      1.000     C          0.145893  
         C5        1.0000    0.26952   0.45420   0.84647   Biso      1.000     C          -0.017978           
         C6        1.0000    0.30324   0.37050   0.79408   Biso      1.000     C          0.006269  
         C7        1.0000    0.35895   0.77300   0.91622   Biso      1.000     C          0.145891  
         C8        1.0000    0.19847   0.47680   0.74071   Biso      1.000     C          -0.050247           
         C9        1.0000    0.38768   0.71700   0.84679   Biso      1.000     C          -0.090728           
         C10       1.0000    0.46518   0.64560   0.93402   Biso      1.000     C          -0.049408           
         C11       1.0000    0.76952   0.04580   0.34647   Biso      1.000     C          -0.017978           
         C12       1.0000    0.69847   0.02320   0.24071   Biso      1.000     C          -0.050247           
         C13       1.0000    0.69847   0.97680   0.74071   Biso      1.000     C          -0.050247           
         C14       1.0000    0.43648   0.69900   0.00346   Biso      1.000     C          -0.01398  
         C15       1.0000    0.56352   0.30100   0.99654   Biso      1.000     C          -0.013983           
         C16       1.0000    0.80324   0.12950   0.29408   Biso      1.000     C          0.006269  
         C17       1.0000    0.06352   0.80100   0.99654   Biso      1.000     C          -0.01398  
         C18       1.0000    0.23151   0.38930   0.68971   Biso      1.000     C          0.145422  
         C19       1.0000    0.23151   0.61070   0.18971   Biso      1.000     C          0.145421  
         C20       1.0000    0.73151   0.88930   0.68971   Biso      1.000     C          0.145422  
         C21       1.0000    0.56352   0.69900   0.49654   Biso      1.000     C          -0.013983           
         C22       1.0000    0.80324   0.87050   0.79408   Biso      1.000     C          0.006262  
         C23       1.0000    0.53482   0.64560   0.56598   Biso      1.000     C          -0.049406           
         C24       1.0000    0.43648   0.30100   0.50346   Biso      1.000     C          -0.013983           
         C25       1.0000    0.64105   0.77300   0.58378   Biso      1.000     C          0.145893  
         C26       1.0000    0.14105   0.27300   0.58378   Biso      1.000     C          0.145891  
         C27       1.0000    0.11232   0.21700   0.65321   Biso      1.000     C          -0.090728           
         C28       1.0000    0.03482   0.14560   0.56598   Biso      1.000     C          -0.049409           
         C29       1.0000    0.35895   0.22700   0.41622   Biso      1.000     C          0.14589   
         C30       1.0000    0.38768   0.28300   0.34679   Biso      1.000     C          -0.090727           
         C31       1.0000    0.30324   0.62950   0.29408   Biso      1.000     C          0.006262  
         C32       1.0000    0.06352   0.19900   0.49654   Biso      1.000     C          -0.01398  
         C33       1.0000    0.26952   0.54580   0.34647   Biso      1.000     C          -0.01797  
         C34       1.0000    0.19847   0.52320   0.24071   Biso      1.000     C          -0.050245           
         C35       1.0000    0.53482   0.35440   0.06598   Biso      1.000     C          -0.049405           
         C36       1.0000    0.26849   0.88930   0.81029   Biso      1.000     C          0.145421  
         C37       1.0000    0.73151   0.11070   0.18971   Biso      1.000     C          0.145423  
         C38       1.0000    0.64105   0.22700   0.08378   Biso      1.000     C          0.145891  
         C39       1.0000    0.93648   0.80100   0.50346   Biso      1.000     C          -0.013983           
         C40       1.0000    0.96518   0.14560   0.93402   Biso      1.000     C          -0.049409           
         C41       1.0000    0.61232   0.28300   0.15321   Biso      1.000     C          -0.090728           
         C42       1.0000    0.88768   0.78300   0.34679   Biso      1.000     C          -0.090731           
         C43       1.0000    0.85895   0.72700   0.41622   Biso      1.000     C          0.145893  
         C44       1.0000    0.93648   0.19900   0.00346   Biso      1.000     C          -0.01398  
         C45       1.0000    0.76849   0.61070   0.31029   Biso      1.000     C          0.145421  
         C46       1.0000    0.76849   0.38930   0.81029   Biso      1.000     C          0.145422  
         C47       1.0000    0.73048   0.45420   0.65353   Biso      1.000     C          -0.017977           
         C48       1.0000    0.19676   0.12950   0.20592   Biso      1.000     C          0.006262  
         C49       1.0000    0.69676   0.37050   0.70592   Biso      1.000     C          0.00627   
         C50       1.0000    0.23048   0.04580   0.15353   Biso      1.000     C          -0.01797  
         C51       1.0000    0.30153   0.02320   0.25929   Biso      1.000     C          -0.050247           
         C52       1.0000    0.26849   0.11070   0.31029   Biso      1.000     C          0.145423  
         C53       1.0000    0.80153   0.47680   0.75929   Biso      1.000     C          -0.050245           
         C54       1.0000    0.80153   0.52320   0.25929   Biso      1.000     C          -0.050245           
         C55       1.0000    0.96518   0.85440   0.43402   Biso      1.000     C          -0.049406           
         C56       1.0000    0.19676   0.87050   0.70592   Biso      1.000     C          0.006262  
         C57       1.0000    0.30153   0.97680   0.75929   Biso      1.000     C          -0.050245           
         C58       1.0000    0.23048   0.95420   0.65353   Biso      1.000     C          -0.01797  
         C59       1.0000    0.88768   0.21700   0.84679   Biso      1.000     C          -0.090731           
         C60       1.0000    0.46518   0.35440   0.43402   Biso      1.000     C          -0.049406           
         C61       1.0000    0.69676   0.62950   0.20592   Biso      1.000     C          0.006262  
         C62       1.0000    0.76952   0.95420   0.84647   Biso      1.000     C          -0.017971           
         C63       1.0000    0.85895   0.27300   0.91622   Biso      1.000     C          0.145893  
         C64       1.0000    0.73048   0.54580   0.15353   Biso      1.000     C          -0.01797  
         H1        1.0000    0.45460   0.69070   0.05720   Biso      1.000     H          0.087881  
         H2        1.0000    0.78350   0.97280   0.90160   Biso      1.000     H          0.097892  
         H3        1.0000    0.16240   0.51420   0.71980   Biso      1.000     H          0.105027  
         H4        1.0000    0.65980   0.33710   0.68580   Biso      1.000     H          0.092963  
         H5        1.0000    0.33760   0.01420   0.78020   Biso      1.000     H          0.105027  
         H6        1.0000    0.84020   0.83710   0.81420   Biso      1.000     H          0.092964  
         H7        1.0000    0.86930   0.22310   0.79310   Biso      1.000     H          0.103519  
         H8        1.0000    0.21650   0.97280   0.59840   Biso      1.000     H          0.097891  
         H9        1.0000    0.71650   0.47280   0.59840   Biso      1.000     H          0.097892  
         H10       1.0000    0.50230   0.60210   0.94210   Biso      1.000     H          0.087431  
         H11       1.0000    0.13070   0.22310   0.70690   Biso      1.000     H          0.103519  
         H12       1.0000    0.83760   0.51420   0.78020   Biso      1.000     H          0.105027  
         H13       1.0000    0.34020   0.33710   0.81420   Biso      1.000     H          0.092963  
         H14       1.0000    0.99770   0.10210   0.55790   Biso      1.000     H          0.087431  
         H15       1.0000    0.95460   0.19070   0.05720   Biso      1.000     H          0.087881  
         H16       1.0000    0.15980   0.83710   0.68580   Biso      1.000     H          0.092964  
         H17       1.0000    0.36930   0.72310   0.79310   Biso      1.000     H          0.103518  
         H18       1.0000    0.04540   0.19070   0.44280   Biso      1.000     H          0.087881  
         H19       1.0000    0.00230   0.10210   0.94210   Biso      1.000     H          0.087431  
         H20       1.0000    0.28350   0.47280   0.90160   Biso      1.000     H          0.097892  
         H21       1.0000    0.45460   0.30930   0.55720   Biso      1.000     H          0.087881  
         H22       1.0000    0.54540   0.69070   0.44280   Biso      1.000     H          0.087881  
         H23       1.0000    0.78350   0.02720   0.40160   Biso      1.000     H          0.097892  
         H24       1.0000    0.66240   0.01420   0.71980   Biso      1.000     H          0.105027  
         H25       1.0000    0.54540   0.30930   0.94280   Biso      1.000     H          0.087881  
         H26       1.0000    0.49770   0.39790   0.05790   Biso      1.000     H          0.087431  
         H27       1.0000    0.63070   0.27690   0.20690   Biso      1.000     H          0.103518  
         H28       1.0000    0.65980   0.66290   0.18580   Biso      1.000     H          0.092964  
         H29       1.0000    0.71650   0.52720   0.09840   Biso      1.000     H          0.097892  
         H30       1.0000    0.83760   0.48580   0.28020   Biso      1.000     H          0.105027  
         H31       1.0000    0.95460   0.80930   0.55720   Biso      1.000     H          0.087881  
         H32       1.0000    0.00230   0.89790   0.44210   Biso      1.000     H          0.087431  
         H33       1.0000    0.86930   0.77690   0.29310   Biso      1.000     H          0.103519  
         H34       1.0000    0.50230   0.39790   0.44210   Biso      1.000     H          0.087431  
         H35       1.0000    0.15980   0.16290   0.18580   Biso      1.000     H          0.092964  
         H36       1.0000    0.21650   0.02720   0.09840   Biso      1.000     H          0.097892  
         H37       1.0000    0.33760   0.98580   0.28020   Biso      1.000     H          0.105027  
         H38       1.0000    0.84020   0.16290   0.31420   Biso      1.000     H          0.092964  
         H39       1.0000    0.36930   0.27690   0.29310   Biso      1.000     H          0.103518  
         H40       1.0000    0.66240   0.98580   0.21980   Biso      1.000     H          0.105027  
         H41       1.0000    0.99770   0.89790   0.05790   Biso      1.000     H          0.087431  
         H42       1.0000    0.34020   0.66290   0.31420   Biso      1.000     H          0.092964  
         H43       1.0000    0.28350   0.52720   0.40160   Biso      1.000     H          0.097892  
         H44       1.0000    0.16240   0.48580   0.21980   Biso      1.000     H          0.105027  
         H45       1.0000    0.04540   0.80930   0.94280   Biso      1.000     H          0.087881  
         H46       1.0000    0.13070   0.77690   0.20690   Biso      1.000     H          0.103519  
         H47       1.0000    0.49770   0.60210   0.55790   Biso      1.000     H          0.087431  
         H48       1.0000    0.63070   0.72310   0.70690   Biso      1.000     H          0.103519  
         N1        1.0000    0.94131   0.15440   0.85557   Biso      1.000     N          -0.188024           
         N2        1.0000    0.71553   0.33601   0.78465   Biso      1.000     N          -0.267257           
         N3        1.0000    0.78255   0.50880   0.68023   Biso      1.000     N          -0.18064  
         N4        1.0000    0.71745   0.00880   0.81977   Biso      1.000     N          -0.18064  
         N5        1.0000    0.21745   0.50880   0.81977   Biso      1.000     N          -0.180639           
         N6        1.0000    0.28447   0.33601   0.71535   Biso      1.000     N          -0.267257           
         N7        1.0000    0.38349   0.23780   0.49531   Biso      1.000     N          -0.259829           
         N8        1.0000    0.94131   0.84560   0.35557   Biso      1.000     N          -0.188026           
         N9        1.0000    0.28255   0.99120   0.18023   Biso      1.000     N          -0.180638           
         N10       1.0000    0.88349   0.26220   0.99531   Biso      1.000     N          -0.259829           
         N11       1.0000    0.05869   0.15440   0.64443   Biso      1.000     N          -0.188025           
         N12       1.0000    0.11651   0.26220   0.50469   Biso      1.000     N          -0.259829           
         N13       1.0000    0.78255   0.49120   0.18023   Biso      1.000     N          -0.18064  
         N14       1.0000    0.71553   0.66399   0.28465   Biso      1.000     N          -0.267256           
         N15       1.0000    0.88349   0.73780   0.49531   Biso      1.000     N          -0.259829           
         N16       1.0000    0.21745   0.49120   0.31977   Biso      1.000     N          -0.180642           
         N17       1.0000    0.78447   0.83601   0.71535   Biso      1.000     N          -0.267256           
         N18       1.0000    0.44131   0.65440   0.85557   Biso      1.000     N          -0.188025           
         N19       1.0000    0.61651   0.23780   0.00469   Biso      1.000     N          -0.25983  
         N20       1.0000    0.55869   0.34560   0.14443   Biso      1.000     N          -0.188027           
         N21       1.0000    0.78447   0.16399   0.21535   Biso      1.000     N          -0.267256           
         N22       1.0000    0.71745   0.99120   0.31977   Biso      1.000     N          -0.180638           
         N23       1.0000    0.55869   0.65440   0.64443   Biso      1.000     N          -0.188025           
         N24       1.0000    0.61651   0.76220   0.50469   Biso      1.000     N          -0.259829           
         N25       1.0000    0.28447   0.66399   0.21535   Biso      1.000     N          -0.267257           
         N26       1.0000    0.28255   0.00880   0.68023   Biso      1.000     N          -0.180641           
         N27       1.0000    0.21553   0.83601   0.78465   Biso      1.000     N          -0.267256           
         N28       1.0000    0.44131   0.34560   0.35557   Biso      1.000     N          -0.188026           
         N29       1.0000    0.38349   0.76220   0.99531   Biso      1.000     N          -0.259829           
         N30       1.0000    0.05869   0.84560   0.14443   Biso      1.000     N          -0.188025           
         N31       1.0000    0.11651   0.73780   0.00469   Biso      1.000     N          -0.25983  
         N32       1.0000    0.21553   0.16399   0.28465   Biso      1.000     N          -0.267254           
         S1        1.0000    0.28822   0.14533   0.41815   Biso      1.000     S          -0.071678           
         S2        1.0000    0.78822   0.35467   0.91815   Biso      1.000     S          -0.071678           
         S3        1.0000    0.78822   0.64533   0.41815   Biso      1.000     S          -0.071678           
         S4        1.0000    0.28822   0.85467   0.91815   Biso      1.000     S          -0.071678           
         S5        1.0000    0.21178   0.64533   0.08185   Biso      1.000     S          -0.071677           
         S6        1.0000    0.71178   0.14533   0.08185   Biso      1.000     S          -0.071677           
         S7        1.0000    0.21178   0.35467   0.58185   Biso      1.000     S          -0.071677           
         S8        1.0000    0.71178   0.85467   0.58185   Biso      1.000     S          -0.071677 