
##########################################################################
#               Crystallographic Information Format file
#               Produced by PyCifRW module
#
#  This is a CIF file.  CIF has been adopted by the International
#  Union of Crystallography as the standard for data archiving and
#  transmission.
#
#  For information on this file format, follow the CIF links at
#  http://www.iucr.org
##########################################################################

data_image0

_cell_length_a                          9.1754
_cell_length_b                          15.5258
_cell_length_c                          16.3
_cell_angle_alpha                       111.89
_cell_angle_beta                        90
_cell_angle_gamma                       107.187
_symmetry_space_group_name_H-M          'P 1'
_symmetry_int_tables_number             1
loop_
  _symmetry_equiv_pos_as_xyz
         'x, y, z' 
loop_
  _atom_site_label
  _atom_site_occupancy
  _atom_site_fract_x
  _atom_site_fract_y
  _atom_site_fract_z
  _atom_site_thermal_displace_type
  _atom_site_B_iso_or_equiv
  _atom_site_type_symbol
  _atom_site_charge
         C1        1.0000    0.08560   0.68380   0.91850   Biso      1.000     C          -0.246313           
         C2        1.0000    0.58380   0.41240   0.86870   Biso      1.000     C          -0.22286399999999998          
         C3        1.0000    0.93210   0.56220   0.22360   Biso      1.000     C          0.278661  
         C4        1.0000    0.92640   0.53060   0.92150   Biso      1.000     C          -0.343489           
         C5        1.0000    0.63320   0.43740   0.95710   Biso      1.000     C          0.290123  
         C6        1.0000    0.21120   0.72280   0.55460   Biso      1.000     C          -0.06669800000000001          
         C7        1.0000    0.81630   0.14940   0.30390   Biso      1.000     C          0.705742  
         C8        1.0000    0.80420   0.43740   0.45710   Biso      1.000     C          0.290632  
         C9        1.0000    0.92900   0.40200   0.72560   Biso      1.000     C          -0.22298099999999998          
         C10       1.0000    0.66690   0.85060   0.19610   Biso      1.000     C          0.706963  
         C11       1.0000    0.17080   0.68080   0.68140   Biso      1.000     C          -0.071229           
         C12       1.0000    0.36680   0.56260   0.04290   Biso      1.000     C          0.29012   
         C13       1.0000    0.33310   0.14940   0.80390   Biso      1.000     C          0.706964  
         C14       1.0000    0.63010   0.56220   0.72360   Biso      1.000     C          0.276501  
         C15       1.0000    0.53810   0.58340   0.38870   Biso      1.000     C          0.296451  
         C16       1.0000    0.78450   0.37020   0.49510   Biso      1.000     C          -0.217939           
         C17       1.0000    0.80460   0.84000   0.50540   Biso      1.000     C          0.685156  
         C18       1.0000    0.19540   0.16000   0.49460   Biso      1.000     C          0.685156  
         C19       1.0000    0.59820   0.68380   0.41850   Biso      1.000     C          -0.24676399999999998          
         C20       1.0000    0.49000   0.31920   0.81860   Biso      1.000     C          -0.071523           
         C21       1.0000    0.03540   0.84000   0.00540   Biso      1.000     C          0.6861729999999999  
         C22       1.0000    0.77150   0.86080   0.89950   Biso      1.000     C          0.665277  
         C23       1.0000    0.91440   0.31620   0.08150   Biso      1.000     C          -0.246313           
         C24       1.0000    0.84170   0.57940   0.97890   Biso      1.000     C          0.251871  
         C25       1.0000    0.80950   0.24980   0.35690   Biso      1.000     C          -0.06804600000000001          
         C26       1.0000    0.60420   0.53060   0.42150   Biso      1.000     C          -0.34844400000000003          
         C27       1.0000    0.36990   0.43780   0.27640   Biso      1.000     C          0.276501  
         C28       1.0000    0.40180   0.31620   0.58150   Biso      1.000     C          -0.246772           
         C29       1.0000    0.26230   0.42060   0.52110   Biso      1.000     C          0.250101  
         C30       1.0000    0.42750   0.30340   0.17090   Biso      1.000     C          -0.069088           
         C31       1.0000    0.07100   0.59800   0.27440   Biso      1.000     C          -0.22297199999999998          
         C32       1.0000    0.44030   0.24980   0.85690   Biso      1.000     C          -0.06802799999999999          
         C33       1.0000    0.19710   0.32020   0.49020   Biso      1.000     C          -0.059239           
         C34       1.0000    0.47300   0.40200   0.22560   Biso      1.000     C          -0.22062800000000002          
         C35       1.0000    0.18370   0.85060   0.69610   Biso      1.000     C          0.705741  
         C36       1.0000    0.39580   0.46940   0.57850   Biso      1.000     C          -0.348439           
         C37       1.0000    0.48840   0.27720   0.94540   Biso      1.000     C          -0.06805800000000001          
         C38       1.0000    0.21550   0.62980   0.50490   Biso      1.000     C          -0.217944           
         C39       1.0000    0.22580   0.37980   0.27590   Biso      1.000     C          -0.214113           
         C40       1.0000    0.07360   0.46940   0.07850   Biso      1.000     C          -0.34349  
         C41       1.0000    0.96460   0.16000   0.99460   Biso      1.000     C          0.686172  
         C42       1.0000    0.96140   0.24300   0.66680   Biso      1.000     C          -0.044285000000000005         
         C43       1.0000    0.51160   0.72280   0.05460   Biso      1.000     C          -0.068064           
         C44       1.0000    0.41430   0.62980   0.00490   Biso      1.000     C          -0.21800799999999998          
         C45       1.0000    0.81930   0.71820   0.78080   Biso      1.000     C          -0.06920599999999999          
         C46       1.0000    0.12310   0.32020   0.99020   Biso      1.000     C          -0.06204  
         C47       1.0000    0.99960   0.26860   0.02100   Biso      1.000     C          -0.036574           
         C48       1.0000    0.41620   0.58760   0.13130   Biso      1.000     C          -0.222861           
         C49       1.0000    0.84600   0.62020   0.22410   Biso      1.000     C          -0.21338400000000002          
         C50       1.0000    0.55970   0.75020   0.14310   Biso      1.000     C          -0.068023           
         C51       1.0000    0.18070   0.28180   0.21920   Biso      1.000     C          -0.06920499999999999          
         C52       1.0000    0.80290   0.67980   0.50980   Biso      1.000     C          -0.059245000000000006         
         C53       1.0000    0.87690   0.67980   0.00980   Biso      1.000     C          -0.062035           
         C54       1.0000    0.46190   0.41660   0.61130   Biso      1.000     C          0.296458  
         C55       1.0000    0.82860   0.41240   0.36870   Biso      1.000     C          -0.223557           
         C56       1.0000    0.89890   0.71820   0.28080   Biso      1.000     C          -0.070578           
         C57       1.0000    0.00040   0.73140   0.97900   Biso      1.000     C          -0.036575           
         C58       1.0000    0.15400   0.37980   0.77590   Biso      1.000     C          -0.213396           
         C59       1.0000    0.10110   0.28180   0.71920   Biso      1.000     C          -0.07057100000000001          
         C60       1.0000    0.73770   0.57940   0.47890   Biso      1.000     C          0.250112  
         C61       1.0000    0.06790   0.43780   0.77640   Biso      1.000     C          0.278677  
         C62       1.0000    0.26900   0.26860   0.52100   Biso      1.000     C          -0.036399           
         C63       1.0000    0.22850   0.13920   0.10050   Biso      1.000     C          0.665277  
         C64       1.0000    0.77420   0.62020   0.72410   Biso      1.000     C          -0.214113           
         C65       1.0000    0.91070   0.13920   0.60050   Biso      1.000     C          0.6626920000000001  
         C66       1.0000    0.19050   0.75020   0.64310   Biso      1.000     C          -0.068035           
         C67       1.0000    0.57250   0.69660   0.82910   Biso      1.000     C          -0.069088           
         C68       1.0000    0.58570   0.37020   0.99510   Biso      1.000     C          -0.218009           
         C69       1.0000    0.51000   0.68080   0.18140   Biso      1.000     C          -0.071523           
         C70       1.0000    0.52700   0.59800   0.77440   Biso      1.000     C          -0.22062800000000002          
         C71       1.0000    0.71840   0.75700   0.83320   Biso      1.000     C          -0.046031           
         C72       1.0000    0.73100   0.73140   0.47900   Biso      1.000     C          -0.0364   
         C73       1.0000    0.12410   0.69660   0.32910   Biso      1.000     C          -0.06767100000000001          
         C74       1.0000    0.17140   0.58760   0.63130   Biso      1.000     C          -0.22355799999999998          
         C75       1.0000    0.19580   0.56260   0.54290   Biso      1.000     C          0.290643  
         C76       1.0000    0.95470   0.41660   0.11130   Biso      1.000     C          0.294037  
         C77       1.0000    0.08930   0.86080   0.39950   Biso      1.000     C          0.66269   
         C78       1.0000    0.28160   0.24300   0.16680   Biso      1.000     C          -0.046031           
         C79       1.0000    0.03860   0.75700   0.33320   Biso      1.000     C          -0.044272000000000006         
         C80       1.0000    0.82920   0.31920   0.31860   Biso      1.000     C          -0.071224           
         C81       1.0000    0.04530   0.58340   0.88870   Biso      1.000     C          0.294037  
         C82       1.0000    0.87590   0.30340   0.67090   Biso      1.000     C          -0.067662           
         C83       1.0000    0.15830   0.42060   0.02110   Biso      1.000     C          0.251877  
         C84       1.0000    0.78880   0.27720   0.44540   Biso      1.000     C          -0.066687           
         H1        1.0000    0.45500   0.23260   0.97220   Biso      1.000     H          0.11208399999999999           
         H2        1.0000    0.38600   0.54160   0.15670   Biso      1.000     H          0.123803  
         H3        1.0000    0.15720   0.69820   0.74130   Biso      1.000     H          0.112811  
         H4        1.0000    0.38080   0.61260   0.94540   Biso      1.000     H          0.12626400000000002           
         H5        1.0000    0.49680   0.27760   0.13630   Biso      1.000     H          0.11913299999999999           
         H6        1.0000    0.84440   0.45840   0.34330   Biso      1.000     H          0.124551  
         H7        1.0000    0.87130   0.44280   0.72770   Biso      1.000     H          0.130934  
         H8        1.0000    0.75330   0.59440   0.18710   Biso      1.000     H          0.13122799999999998           
         H9        1.0000    0.22240   0.76740   0.52780   Biso      1.000     H          0.111394  
         H10       1.0000    0.15560   0.54160   0.65670   Biso      1.000     H          0.124551  
         H11       1.0000    0.84110   0.59440   0.68710   Biso      1.000     H          0.132074  
         H12       1.0000    0.44930   0.28120   0.60140   Biso      1.000     H          0.150003  
         H13       1.0000    0.83190   0.28120   0.10140   Biso      1.000     H          0.150577  
         H14       1.0000    0.61920   0.38740   0.05460   Biso      1.000     H          0.12626400000000002           
         H15       1.0000    0.50320   0.72240   0.86370   Biso      1.000     H          0.11913299999999999           
         H16       1.0000    0.77760   0.23260   0.47220   Biso      1.000     H          0.111393  
         H17       1.0000    0.08130   0.24180   0.21660   Biso      1.000     H          0.11326300000000002           
         H18       1.0000    0.83950   0.75820   0.28340   Biso      1.000     H          0.113383  
         H19       1.0000    0.16810   0.71880   0.89860   Biso      1.000     H          0.150577  
         H20       1.0000    0.42850   0.55720   0.77230   Biso      1.000     H          0.13196300000000002           
         H21       1.0000    0.45900   0.30180   0.75870   Biso      1.000     H          0.112977  
         H22       1.0000    0.23180   0.61260   0.44540   Biso      1.000     H          0.12603399999999998           
         H23       1.0000    0.21920   0.72240   0.36370   Biso      1.000     H          0.119208  
         H24       1.0000    0.15890   0.40560   0.31290   Biso      1.000     H          0.132073  
         H25       1.0000    0.55850   0.46360   0.40460   Biso      1.000     H          0.155975  
         H26       1.0000    0.54500   0.76740   0.02780   Biso      1.000     H          0.11208499999999999           
         H27       1.0000    0.57150   0.44280   0.22770   Biso      1.000     H          0.13196300000000002           
         H28       1.0000    0.12870   0.55720   0.27230   Biso      1.000     H          0.130934  
         H29       1.0000    0.76820   0.38740   0.55460   Biso      1.000     H          0.12603399999999998           
         H30       1.0000    0.55070   0.71880   0.39860   Biso      1.000     H          0.150003  
         H31       1.0000    0.61400   0.45840   0.84330   Biso      1.000     H          0.123803  
         H32       1.0000    0.90510   0.46360   0.90460   Biso      1.000     H          0.154133  
         H33       1.0000    0.44150   0.53640   0.59540   Biso      1.000     H          0.155975  
         H34       1.0000    0.16050   0.24180   0.71660   Biso      1.000     H          0.113383  
         H35       1.0000    0.24670   0.40560   0.81290   Biso      1.000     H          0.13122999999999999           
         H36       1.0000    0.78080   0.27760   0.63630   Biso      1.000     H          0.119208  
         H37       1.0000    0.09490   0.53640   0.09540   Biso      1.000     H          0.154133  
         H38       1.0000    0.91870   0.75820   0.78340   Biso      1.000     H          0.11326300000000002           
         H39       1.0000    0.54100   0.69820   0.24130   Biso      1.000     H          0.112977  
         H40       1.0000    0.84280   0.30180   0.25870   Biso      1.000     H          0.112811  
         O1        1.0000    0.25710   0.11680   0.52650   Biso      1.000     O          -0.672796           
         O2        1.0000    0.68690   0.88820   0.95690   Biso      1.000     O          -0.663589           
         O3        1.0000    0.59450   0.46180   0.67130   Biso      1.000     O          -0.23392399999999997          
         O4        1.0000    0.84540   0.12980   0.22540   Biso      1.000     O          -0.709307           
         O5        1.0000    0.01320   0.91560   0.39820   Biso      1.000     O          -0.743363           
         O6        1.0000    0.05080   0.12120   0.94180   Biso      1.000     O          -0.6924170000000001           
         O7        1.0000    0.78840   0.09000   0.34070   Biso      1.000     O          -0.71208  
         O8        1.0000    0.85970   0.11680   0.02650   Biso      1.000     O          -0.673315           
         O9        1.0000    0.92960   0.87880   0.55820   Biso      1.000     O          -0.6923779999999999           
         O10       1.0000    0.19120   0.46960   0.48860   Biso      1.000     O          -0.213216           
         O11       1.0000    0.98680   0.08440   0.60180   Biso      1.000     O          -0.743363           
         O12       1.0000    0.69840   0.91000   0.15930   Biso      1.000     O          -0.712665           
         O13       1.0000    0.94920   0.87880   0.05820   Biso      1.000     O          -0.6924170000000001           
         O14       1.0000    0.74290   0.88320   0.47350   Biso      1.000     O          -0.672797           
         O15       1.0000    0.90240   0.91560   0.89820   Biso      1.000     O          -0.743546           
         O16       1.0000    0.21160   0.91000   0.65930   Biso      1.000     O          -0.71208  
         O17       1.0000    0.20130   0.88820   0.45690   Biso      1.000     O          -0.66217  
         O18       1.0000    0.07040   0.12120   0.44180   Biso      1.000     O          -0.692379           
         O19       1.0000    0.28440   0.12980   0.72540   Biso      1.000     O          -0.709341           
         O20       1.0000    0.79870   0.11180   0.54310   Biso      1.000     O          -0.66217  
         O21       1.0000    0.72160   0.53040   0.01140   Biso      1.000     O          -0.213348           
         O22       1.0000    0.09760   0.08440   0.10180   Biso      1.000     O          -0.743546           
         O23       1.0000    0.27840   0.46960   0.98860   Biso      1.000     O          -0.213348           
         O24       1.0000    0.30160   0.09000   0.84070   Biso      1.000     O          -0.712665           
         O25       1.0000    0.86730   0.46180   0.17130   Biso      1.000     O          -0.23378400000000002          
         O26       1.0000    0.15460   0.87020   0.77460   Biso      1.000     O          -0.709307           
         O27       1.0000    0.71560   0.87020   0.27460   Biso      1.000     O          -0.709341           
         O28       1.0000    0.80880   0.53040   0.51140   Biso      1.000     O          -0.213216           
         O29       1.0000    0.40550   0.53820   0.32870   Biso      1.000     O          -0.23392399999999997          
         O30       1.0000    0.14030   0.88320   0.97350   Biso      1.000     O          -0.6733140000000001           
         O31       1.0000    0.13270   0.53820   0.82870   Biso      1.000     O          -0.233785           
         O32       1.0000    0.31310   0.11180   0.04310   Biso      1.000     O          -0.663589           
         Tb1       1.0000    0.83330   0.99484   0.40807   Biso      1.000     Tb          2.151077  
         Tb2       1.0000    0.83846   0.00516   0.09193   Biso      1.000     Tb          2.1511240000000003  
         Tb3       1.0000    0.16154   0.99484   0.90807   Biso      1.000     Tb          2.151123  
         Tb4       1.0000    0.16670   0.00516   0.59193   Biso      1.000     Tb          2.1510759999999998 