
##########################################################################
#               Crystallographic Information Format file
#               Produced by PyCifRW module
#
#  This is a CIF file.  CIF has been adopted by the International
#  Union of Crystallography as the standard for data archiving and
#  transmission.
#
#  For information on this file format, follow the CIF links at
#  http://www.iucr.org
##########################################################################

data_image0

_cell_length_a                          7.8005
_cell_length_b                          11.2947
_cell_length_c                          13.1552
_cell_angle_alpha                       82.719
_cell_angle_beta                        80.499
_cell_angle_gamma                       83.194
_symmetry_space_group_name_H-M          'P 1'
_symmetry_int_tables_number             1
loop_
  _symmetry_equiv_pos_as_xyz
         'x, y, z' 
loop_
  _atom_site_label
  _atom_site_occupancy
  _atom_site_fract_x
  _atom_site_fract_y
  _atom_site_fract_z
  _atom_site_thermal_displace_type
  _atom_site_B_iso_or_equiv
  _atom_site_type_symbol
  _atom_site_charge
         C1        1.0000    0.34190   0.54850   0.89550   Biso      1.000     C          0.112255  
         C2        1.0000    0.40640   0.48000   0.59770   Biso      1.000     C          -0.130699           
         C3        1.0000    0.99220   0.04810   0.59250   Biso      1.000     C          -0.157601           
         C4        1.0000    0.41880   0.86100   0.61430   Biso      1.000     C          -0.162688           
         C5        1.0000    0.59170   0.34440   0.13730   Biso      1.000     C          -0.082621           
         C6        1.0000    0.94110   0.36000   0.35900   Biso      1.000     C          -0.094842           
         C7        1.0000    0.52410   0.01460   0.28810   Biso      1.000     C          0.133881  
         C8        1.0000    0.10490   0.05150   0.05480   Biso      1.000     C          -0.033833           
         C9        1.0000    0.13880   0.41230   0.00620   Biso      1.000     C          -0.139677           
         C10       1.0000    0.16840   0.52210   0.94890   Biso      1.000     C          0.0332    
         C11       1.0000    0.97330   0.39050   0.05640   Biso      1.000     C          -0.130042           
         C12       1.0000    0.85070   0.38880   0.45070   Biso      1.000     C          0.107869  
         C13       1.0000    0.14290   0.97820   0.55380   Biso      1.000     C          0.074111  
         C14       1.0000    0.86120   0.58770   0.99380   Biso      1.000     C          -0.139676           
         C15       1.0000    0.88650   0.69280   0.52870   Biso      1.000     C          0.194943  
         C16       1.0000    0.89510   0.94850   0.94520   Biso      1.000     C          -0.033833           
         C17       1.0000    0.78050   0.89000   0.88970   Biso      1.000     C          0.56688   
         C18       1.0000    0.61210   0.51830   0.81820   Biso      1.000     C          0.150392  
         C19       1.0000    0.42310   0.57300   0.42420   Biso      1.000     C          -0.141366           
         C20       1.0000    0.11350   0.30720   0.47130   Biso      1.000     C          0.194943  
         C21       1.0000    0.85710   0.02180   0.44620   Biso      1.000     C          0.074113  
         C22       1.0000    0.05890   0.64000   0.64100   Biso      1.000     C          -0.094842           
         C23       1.0000    0.21950   0.11000   0.11030   Biso      1.000     C          0.56688   
         C24       1.0000    0.70610   0.04450   0.39090   Biso      1.000     C          0.11599   
         C25       1.0000    0.00780   0.95190   0.40750   Biso      1.000     C          -0.157601           
         C26       1.0000    0.38790   0.48170   0.18180   Biso      1.000     C          0.150393  
         C27       1.0000    0.07370   0.94310   0.91390   Biso      1.000     C          -0.122292           
         C28       1.0000    0.14780   0.93140   0.46050   Biso      1.000     C          -0.159623           
         C29       1.0000    0.58120   0.13900   0.38570   Biso      1.000     C          -0.162674           
         C30       1.0000    0.59360   0.52000   0.40230   Biso      1.000     C          -0.130699           
         C31       1.0000    0.65810   0.45150   0.10450   Biso      1.000     C          0.112264  
         C32       1.0000    0.82130   0.00730   0.03140   Biso      1.000     C          -0.119388           
         C33       1.0000    0.29390   0.95550   0.60910   Biso      1.000     C          0.116002  
         C34       1.0000    0.32850   0.55420   0.52280   Biso      1.000     C          0.053281  
         C35       1.0000    0.47590   0.98540   0.71190   Biso      1.000     C          0.133881  
         C36       1.0000    0.83160   0.47790   0.05110   Biso      1.000     C          0.033199  
         C37       1.0000    0.57690   0.42700   0.57580   Biso      1.000     C          -0.141366           
         C38       1.0000    0.14930   0.61120   0.54930   Biso      1.000     C          0.107869  
         C39       1.0000    0.85220   0.06860   0.53950   Biso      1.000     C          -0.159623           
         C40       1.0000    0.17870   0.99270   0.96860   Biso      1.000     C          -0.119386           
         C41       1.0000    0.02670   0.60950   0.94360   Biso      1.000     C          -0.130042           
         C42       1.0000    0.67150   0.44580   0.47720   Biso      1.000     C          0.053281  
         C43       1.0000    0.92630   0.05690   0.08610   Biso      1.000     C          -0.12229  
         C44       1.0000    0.40830   0.65560   0.86270   Biso      1.000     C          -0.08261  
         H1        1.0000    0.65200   0.26940   0.12860   Biso      1.000     H          0.146573  
         H2        1.0000    0.70090   0.01320   0.05210   Biso      1.000     H          0.123305  
         H3        1.0000    0.95610   0.31640   0.09430   Biso      1.000     H          0.120641  
         H4        1.0000    0.29910   0.98680   0.94790   Biso      1.000     H          0.123305  
         H5        1.0000    0.62770   0.37860   0.62770   Biso      1.000     H          0.114028  
         H6        1.0000    0.71780   0.47920   0.79030   Biso      1.000     H          0.093638  
         H7        1.0000    0.52860   0.02090   0.75720   Biso      1.000     H          0.083734  
         H8        1.0000    0.42560   0.79330   0.57970   Biso      1.000     H          0.085281  
         H9        1.0000    0.87630   0.09430   0.14460   Biso      1.000     H          0.115663  
         H10       1.0000    0.12370   0.90570   0.85540   Biso      1.000     H          0.115663  
         H11       1.0000    0.52900   0.61400   0.12140   Biso      1.000     H          0.326042  
         H12       1.0000    0.34400   0.46520   0.66390   Biso      1.000     H          0.113938  
         H13       1.0000    0.28220   0.52080   0.20970   Biso      1.000     H          0.093638  
         H14       1.0000    0.75220   0.11460   0.56650   Biso      1.000     H          0.104075  
         H15       1.0000    0.47140   0.97910   0.24280   Biso      1.000     H          0.083734  
         H16       1.0000    0.21100   0.27760   0.50220   Biso      1.000     H          0.105576  
         H17       1.0000    0.78900   0.72240   0.49780   Biso      1.000     H          0.105577  
         H18       1.0000    0.10190   0.62680   0.70370   Biso      1.000     H          0.125962  
         H19       1.0000    0.93940   0.36110   0.58760   Biso      1.000     H          0.313695  
         H20       1.0000    0.06060   0.63890   0.41240   Biso      1.000     H          0.313696  
         H21       1.0000    0.01340   0.91920   0.34550   Biso      1.000     H          0.108966  
         H22       1.0000    0.76870   0.64720   0.98920   Biso      1.000     H          0.117071  
         H23       1.0000    0.89810   0.37320   0.29630   Biso      1.000     H          0.125962  
         H24       1.0000    0.65600   0.53480   0.33610   Biso      1.000     H          0.113938  
         H25       1.0000    0.47100   0.38600   0.87860   Biso      1.000     H          0.326042  
         H26       1.0000    0.23130   0.35280   0.01080   Biso      1.000     H          0.117071  
         H27       1.0000    0.34800   0.73060   0.87140   Biso      1.000     H          0.146573  
         H28       1.0000    0.98660   0.08080   0.65450   Biso      1.000     H          0.108966  
         H29       1.0000    0.57440   0.20670   0.42030   Biso      1.000     H          0.08528   
         H30       1.0000    0.24780   0.88540   0.43350   Biso      1.000     H          0.104075  
         H31       1.0000    0.04390   0.68360   0.90570   Biso      1.000     H          0.120641  
         H32       1.0000    0.37230   0.62140   0.37230   Biso      1.000     H          0.114028  
         N1        1.0000    0.33240   0.03450   0.67280   Biso      1.000     N          -0.462498           
         N2        1.0000    0.03770   0.64590   0.47780   Biso      1.000     N          -0.286019           
         N3        1.0000    0.47510   0.46230   0.86710   Biso      1.000     N          -0.276788           
         N4        1.0000    0.57910   0.63570   0.81440   Biso      1.000     N          -0.248064           
         N5        1.0000    0.10620   0.30840   0.37180   Biso      1.000     N          -0.241499           
         N6        1.0000    0.89380   0.69160   0.62820   Biso      1.000     N          -0.241499           
         N7        1.0000    0.46640   0.11990   0.32200   Biso      1.000     N          -0.314882           
         N8        1.0000    0.52490   0.53770   0.13290   Biso      1.000     N          -0.276789           
         N9        1.0000    0.42090   0.36430   0.18560   Biso      1.000     N          -0.248063           
         N10       1.0000    0.96230   0.35410   0.52220   Biso      1.000     N          -0.286019           
         N11       1.0000    0.53360   0.88010   0.67800   Biso      1.000     N          -0.31488  
         N12       1.0000    0.66760   0.96550   0.32720   Biso      1.000     N          -0.462497           
         O1        1.0000    0.62580   0.88130   0.92530   Biso      1.000     O          -0.56872  
         O2        1.0000    0.14330   0.15100   0.19466   Biso      1.000     O          -0.550568           
         O3        1.0000    0.37420   0.11870   0.07470   Biso      1.000     O          -0.56872  
         O4        1.0000    0.85670   0.84900   0.80534   Biso      1.000     O          -0.550568           
         Zn1       1.0000    0.28362   0.23530   0.26422   Biso      1.000     Zn          0.68269   
         Zn2       1.0000    0.71638   0.76470   0.73578   Biso      1.000     Zn          0.682689 