
##########################################################################
#               Crystallographic Information Format file
#               Produced by PyCifRW module
#
#  This is a CIF file.  CIF has been adopted by the International
#  Union of Crystallography as the standard for data archiving and
#  transmission.
#
#  For information on this file format, follow the CIF links at
#  http://www.iucr.org
##########################################################################

data_image0

_cell_length_a                          18.7732
_cell_length_b                          18.7732
_cell_length_c                          9.4537
_cell_angle_alpha                       90
_cell_angle_beta                        90
_cell_angle_gamma                       90
_symmetry_space_group_name_H-M          'P 1'
_symmetry_int_tables_number             1
loop_
  _symmetry_equiv_pos_as_xyz
         'x, y, z' 
loop_
  _atom_site_label
  _atom_site_occupancy
  _atom_site_fract_x
  _atom_site_fract_y
  _atom_site_fract_z
  _atom_site_thermal_displace_type
  _atom_site_B_iso_or_equiv
  _atom_site_type_symbol
  _atom_site_charge
         Al1       1.0000    0.43481   0.55070   0.33580   Biso      1.000     Al          1.7733400000000001  
         Al2       1.0000    0.55070   0.06519   0.33580   Biso      1.000     Al          1.7733400000000001  
         Al3       1.0000    0.83432   0.06412   0.08090   Biso      1.000     Al          1.766045  
         Al4       1.0000    0.04423   0.16401   0.15780   Biso      1.000     Al          1.7520369999999998  
         Al5       1.0000    0.06519   0.94930   0.33580   Biso      1.000     Al          1.7733400000000001  
         Al6       1.0000    0.66568   0.43588   0.08090   Biso      1.000     Al          1.766046  
         Al7       1.0000    0.45577   0.33599   0.15780   Biso      1.000     Al          1.7520369999999998  
         Al8       1.0000    0.93588   0.33432   0.91910   Biso      1.000     Al          1.766045  
         Al9       1.0000    0.83599   0.54423   0.84220   Biso      1.000     Al          1.7520369999999998  
         Al10      1.0000    0.05070   0.56519   0.66420   Biso      1.000     Al          1.7733400000000001  
         Al11      1.0000    0.56412   0.16568   0.91910   Biso      1.000     Al          1.766046  
         Al12      1.0000    0.66401   0.95577   0.84220   Biso      1.000     Al          1.7520369999999998  
         Al13      1.0000    0.44930   0.93481   0.66420   Biso      1.000     Al          1.7733400000000001  
         Al14      1.0000    0.16568   0.93588   0.91910   Biso      1.000     Al          1.766045  
         Al15      1.0000    0.95577   0.83599   0.84220   Biso      1.000     Al          1.7520369999999998  
         Al16      1.0000    0.93481   0.05070   0.66420   Biso      1.000     Al          1.773341  
         Al17      1.0000    0.33432   0.56412   0.91910   Biso      1.000     Al          1.766046  
         Al18      1.0000    0.54423   0.66401   0.84220   Biso      1.000     Al          1.7520369999999998  
         Al19      1.0000    0.33599   0.04423   0.15780   Biso      1.000     Al          1.7520369999999998  
         Al20      1.0000    0.43588   0.83432   0.08090   Biso      1.000     Al          1.766046  
         Al21      1.0000    0.56519   0.44930   0.66420   Biso      1.000     Al          1.773341  
         Al22      1.0000    0.16401   0.45577   0.15780   Biso      1.000     Al          1.7520369999999998  
         Al23      1.0000    0.06412   0.66568   0.08090   Biso      1.000     Al          1.766045  
         Al24      1.0000    0.94930   0.43481   0.33580   Biso      1.000     Al          1.7733400000000001  
         O1        1.0000    0.25560   0.92050   0.87930   Biso      1.000     O          -0.8683379999999999           
         O2        1.0000    0.37030   0.94010   0.76370   Biso      1.000     O          -0.869036           
         O3        1.0000    0.36300   0.87030   0.98540   Biso      1.000     O          -0.910481           
         O4        1.0000    0.34490   0.00210   0.98730   Biso      1.000     O          -0.91253  
         O5        1.0000    0.01510   0.34330   0.01890   Biso      1.000     O          -0.922011           
         O6        1.0000    0.56240   0.75580   0.80680   Biso      1.000     O          -0.851173           
         O7        1.0000    0.62210   0.87080   0.84020   Biso      1.000     O          -0.86221  
         O8        1.0000    0.50260   0.86410   0.72250   Biso      1.000     O          -0.914681           
         O9        1.0000    0.51510   0.84330   0.98110   Biso      1.000     O          -0.922011           
         O10       1.0000    0.00260   0.36410   0.27750   Biso      1.000     O          -0.914681           
         O11       1.0000    0.49500   0.01620   0.67610   Biso      1.000     O          -0.927425           
         O12       1.0000    0.62730   0.01280   0.70970   Biso      1.000     O          -0.904165           
         O13       1.0000    0.57540   0.08070   0.51220   Biso      1.000     O          -0.857809           
         O14       1.0000    0.55740   0.12430   0.75370   Biso      1.000     O          -0.8701180000000001           
         O15       1.0000    0.12210   0.37080   0.15980   Biso      1.000     O          -0.86221  
         O16       1.0000    0.24440   0.57950   0.87930   Biso      1.000     O          -0.8683379999999999           
         O17       1.0000    0.12970   0.55990   0.76370   Biso      1.000     O          -0.869036           
         O18       1.0000    0.13700   0.62970   0.98540   Biso      1.000     O          -0.910481           
         O19       1.0000    0.15510   0.49790   0.98730   Biso      1.000     O          -0.91253  
         O20       1.0000    0.06240   0.25580   0.19320   Biso      1.000     O          -0.851173           
         O21       1.0000    0.42460   0.91930   0.48780   Biso      1.000     O          -0.857809           
         O22       1.0000    0.87790   0.62920   0.84020   Biso      1.000     O          -0.86221  
         O23       1.0000    0.99740   0.63590   0.72250   Biso      1.000     O          -0.914681           
         O24       1.0000    0.12430   0.94260   0.75370   Biso      1.000     O          -0.8701180000000001           
         O25       1.0000    0.08070   0.92460   0.51220   Biso      1.000     O          -0.857809           
         O26       1.0000    0.37270   0.98720   0.29030   Biso      1.000     O          -0.904165           
         O27       1.0000    0.01620   0.00500   0.67610   Biso      1.000     O          -0.927425           
         O28       1.0000    0.55990   0.37030   0.76370   Biso      1.000     O          -0.869036           
         O29       1.0000    0.62970   0.36300   0.98540   Biso      1.000     O          -0.910481           
         O30       1.0000    0.49790   0.34490   0.98730   Biso      1.000     O          -0.91253  
         O31       1.0000    0.05740   0.62430   0.24630   Biso      1.000     O          -0.8701180000000001           
         O32       1.0000    0.74420   0.56240   0.80680   Biso      1.000     O          -0.851173           
         O33       1.0000    0.62920   0.62210   0.84020   Biso      1.000     O          -0.86221  
         O34       1.0000    0.63590   0.50260   0.72250   Biso      1.000     O          -0.914681           
         O35       1.0000    0.65670   0.51510   0.98110   Biso      1.000     O          -0.922011           
         O36       1.0000    0.07540   0.58070   0.48780   Biso      1.000     O          -0.857809           
         O37       1.0000    0.48380   0.49500   0.67610   Biso      1.000     O          -0.927425           
         O38       1.0000    0.48720   0.62730   0.70970   Biso      1.000     O          -0.904165           
         O39       1.0000    0.41930   0.57540   0.51220   Biso      1.000     O          -0.857809           
         O40       1.0000    0.37570   0.55740   0.75370   Biso      1.000     O          -0.8701180000000001           
         O41       1.0000    0.12730   0.51280   0.29030   Biso      1.000     O          -0.904165           
         O42       1.0000    0.92050   0.24440   0.87930   Biso      1.000     O          -0.8683379999999999           
         O43       1.0000    0.94010   0.12970   0.76370   Biso      1.000     O          -0.869036           
         O44       1.0000    0.87030   0.13700   0.98540   Biso      1.000     O          -0.910481           
         O45       1.0000    0.00210   0.15510   0.98730   Biso      1.000     O          -0.91253  
         O46       1.0000    0.99500   0.51620   0.32390   Biso      1.000     O          -0.927425           
         O47       1.0000    0.75580   0.93760   0.80680   Biso      1.000     O          -0.851173           
         O48       1.0000    0.87080   0.87790   0.84020   Biso      1.000     O          -0.86221  
         O49       1.0000    0.86410   0.99740   0.72250   Biso      1.000     O          -0.914681           
         O50       1.0000    0.84330   0.98490   0.98110   Biso      1.000     O          -0.922011           
         O51       1.0000    0.98490   0.65670   0.98110   Biso      1.000     O          -0.922011           
         O52       1.0000    0.01280   0.87270   0.70970   Biso      1.000     O          -0.904165           
         O53       1.0000    0.93760   0.74420   0.80680   Biso      1.000     O          -0.851173           
         O54       1.0000    0.87270   0.48720   0.70970   Biso      1.000     O          -0.904165           
         O55       1.0000    0.05990   0.87030   0.23630   Biso      1.000     O          -0.869036           
         O56       1.0000    0.12970   0.86300   0.01460   Biso      1.000     O          -0.910481           
         O57       1.0000    0.00500   0.48380   0.67610   Biso      1.000     O          -0.927425           
         O58       1.0000    0.87030   0.44010   0.23630   Biso      1.000     O          -0.869036           
         O59       1.0000    0.24420   0.06240   0.19320   Biso      1.000     O          -0.851173           
         O60       1.0000    0.12920   0.12210   0.15980   Biso      1.000     O          -0.86221  
         O61       1.0000    0.13590   0.00260   0.27750   Biso      1.000     O          -0.914681           
         O62       1.0000    0.15670   0.01510   0.01890   Biso      1.000     O          -0.922011           
         O63       1.0000    0.75560   0.42050   0.12070   Biso      1.000     O          -0.8683379999999999           
         O64       1.0000    0.98380   0.99500   0.32390   Biso      1.000     O          -0.927425           
         O65       1.0000    0.98720   0.12730   0.29030   Biso      1.000     O          -0.904165           
         O66       1.0000    0.91930   0.07540   0.48780   Biso      1.000     O          -0.857809           
         O67       1.0000    0.87570   0.05740   0.24630   Biso      1.000     O          -0.8701180000000001           
         O68       1.0000    0.74440   0.07950   0.12070   Biso      1.000     O          -0.8683379999999999           
         O69       1.0000    0.62970   0.05990   0.23630   Biso      1.000     O          -0.869036           
         O70       1.0000    0.63700   0.12970   0.01460   Biso      1.000     O          -0.910481           
         O71       1.0000    0.65510   0.99790   0.01270   Biso      1.000     O          -0.91253  
         O72       1.0000    0.43760   0.24420   0.19320   Biso      1.000     O          -0.851173           
         O73       1.0000    0.37790   0.12920   0.15980   Biso      1.000     O          -0.86221  
         O74       1.0000    0.49740   0.13590   0.27750   Biso      1.000     O          -0.914681           
         O75       1.0000    0.48490   0.15670   0.01890   Biso      1.000     O          -0.922011           
         O76       1.0000    0.44260   0.87570   0.24630   Biso      1.000     O          -0.8701180000000001           
         O77       1.0000    0.50500   0.98380   0.32390   Biso      1.000     O          -0.927425           
         O78       1.0000    0.07950   0.75560   0.12070   Biso      1.000     O          -0.8683379999999999           
         O79       1.0000    0.86300   0.37030   0.01460   Biso      1.000     O          -0.910481           
         O80       1.0000    0.99790   0.84490   0.01270   Biso      1.000     O          -0.91253  
         O81       1.0000    0.34330   0.48490   0.01890   Biso      1.000     O          -0.922011           
         O82       1.0000    0.44010   0.62970   0.23630   Biso      1.000     O          -0.869036           
         O83       1.0000    0.25580   0.43760   0.19320   Biso      1.000     O          -0.851173           
         O84       1.0000    0.42050   0.74440   0.12070   Biso      1.000     O          -0.8683379999999999           
         O85       1.0000    0.37080   0.37790   0.15980   Biso      1.000     O          -0.86221  
         O86       1.0000    0.57950   0.25560   0.87930   Biso      1.000     O          -0.8683379999999999           
         O87       1.0000    0.36410   0.49740   0.27750   Biso      1.000     O          -0.914681           
         O88       1.0000    0.50210   0.65510   0.01270   Biso      1.000     O          -0.91253  
         O89       1.0000    0.94260   0.37570   0.75370   Biso      1.000     O          -0.8701180000000001           
         O90       1.0000    0.37030   0.63700   0.01460   Biso      1.000     O          -0.910481           
         O91       1.0000    0.84490   0.50210   0.01270   Biso      1.000     O          -0.91253  
         O92       1.0000    0.51620   0.50500   0.32390   Biso      1.000     O          -0.927425           
         O93       1.0000    0.51280   0.37270   0.29030   Biso      1.000     O          -0.904165           
         O94       1.0000    0.92460   0.41930   0.51220   Biso      1.000     O          -0.857809           
         O95       1.0000    0.58070   0.42460   0.48780   Biso      1.000     O          -0.857809           
         O96       1.0000    0.62430   0.44260   0.24630   Biso      1.000     O          -0.8701180000000001           
         P1        1.0000    0.93587   0.44232   0.66370   Biso      1.000     P          1.794186  
         P2        1.0000    0.44979   0.16685   0.16220   Biso      1.000     P          1.7897740000000002  
         P3        1.0000    0.94979   0.66685   0.83780   Biso      1.000     P          1.7897740000000002  
         P4        1.0000    0.43587   0.94232   0.33630   Biso      1.000     P          1.794186  
         P5        1.0000    0.66685   0.55021   0.83780   Biso      1.000     P          1.7897740000000002  
         P6        1.0000    0.66580   0.06624   0.09420   Biso      1.000     P          1.7945950000000002  
         P7        1.0000    0.16580   0.56624   0.90580   Biso      1.000     P          1.7945950000000002  
         P8        1.0000    0.56624   0.33420   0.90580   Biso      1.000     P          1.7945950000000002  
         P9        1.0000    0.33420   0.93376   0.90580   Biso      1.000     P          1.7945950000000002  
         P10       1.0000    0.83420   0.43376   0.09420   Biso      1.000     P          1.7945950000000002  
         P11       1.0000    0.94232   0.06413   0.33630   Biso      1.000     P          1.794186  
         P12       1.0000    0.43376   0.66580   0.09420   Biso      1.000     P          1.7945950000000002  
         P13       1.0000    0.55768   0.43587   0.33630   Biso      1.000     P          1.794186  
         P14       1.0000    0.56413   0.05768   0.66370   Biso      1.000     P          1.794186  
         P15       1.0000    0.93376   0.16580   0.90580   Biso      1.000     P          1.7945950000000002  
         P16       1.0000    0.16685   0.05021   0.16220   Biso      1.000     P          1.7897740000000002  
         P17       1.0000    0.33315   0.44979   0.16220   Biso      1.000     P          1.7897740000000002  
         P18       1.0000    0.83315   0.94979   0.83780   Biso      1.000     P          1.7897740000000002  
         P19       1.0000    0.55021   0.83315   0.83780   Biso      1.000     P          1.7897740000000002  
         P20       1.0000    0.06624   0.83420   0.09420   Biso      1.000     P          1.7945950000000002  
         P21       1.0000    0.05768   0.93587   0.66370   Biso      1.000     P          1.794186  
         P22       1.0000    0.05021   0.33315   0.16220   Biso      1.000     P          1.7897740000000002  
         P23       1.0000    0.44232   0.56413   0.66370   Biso      1.000     P          1.794186  
         P24       1.0000    0.06413   0.55768   0.33630   Biso      1.000     P          1.794186 