
##########################################################################
#               Crystallographic Information Format file
#               Produced by PyCifRW module
#
#  This is a CIF file.  CIF has been adopted by the International
#  Union of Crystallography as the standard for data archiving and
#  transmission.
#
#  For information on this file format, follow the CIF links at
#  http://www.iucr.org
##########################################################################

data_image0

_cell_length_a                          18.691
_cell_length_b                          18.691
_cell_length_c                          9.423
_cell_angle_alpha                       90
_cell_angle_beta                        90
_cell_angle_gamma                       90
_symmetry_space_group_name_H-M          'P 1'
_symmetry_int_tables_number             1
loop_
  _symmetry_equiv_pos_as_xyz
         'x, y, z' 
loop_
  _atom_site_label
  _atom_site_occupancy
  _atom_site_fract_x
  _atom_site_fract_y
  _atom_site_fract_z
  _atom_site_thermal_displace_type
  _atom_site_B_iso_or_equiv
  _atom_site_type_symbol
  _atom_site_charge
         Al1       1.0000    0.56577   0.44935   0.66541   Biso      1.000     Al          1.7650130000000002  
         Al2       1.0000    0.44935   0.93423   0.66541   Biso      1.000     Al          1.7650130000000002  
         Al3       1.0000    0.83452   0.06521   0.08049   Biso      1.000     Al          1.7642470000000001  
         Al4       1.0000    0.04419   0.16393   0.15605   Biso      1.000     Al          1.750823  
         Al5       1.0000    0.93423   0.05065   0.66541   Biso      1.000     Al          1.7650130000000002  
         Al6       1.0000    0.66548   0.43479   0.08049   Biso      1.000     Al          1.7642470000000001  
         Al7       1.0000    0.45581   0.33607   0.15605   Biso      1.000     Al          1.750823  
         Al8       1.0000    0.93479   0.33452   0.91951   Biso      1.000     Al          1.7642470000000001  
         Al9       1.0000    0.83607   0.54419   0.84395   Biso      1.000     Al          1.750823  
         Al10      1.0000    0.94935   0.43423   0.33459   Biso      1.000     Al          1.7650130000000002  
         Al11      1.0000    0.56521   0.16548   0.91951   Biso      1.000     Al          1.7642470000000001  
         Al12      1.0000    0.66393   0.95581   0.84395   Biso      1.000     Al          1.750823  
         Al13      1.0000    0.55065   0.06577   0.33459   Biso      1.000     Al          1.7650130000000002  
         Al14      1.0000    0.16548   0.93479   0.91951   Biso      1.000     Al          1.7642470000000001  
         Al15      1.0000    0.95581   0.83607   0.84395   Biso      1.000     Al          1.750823  
         Al16      1.0000    0.06577   0.94935   0.33459   Biso      1.000     Al          1.7650130000000002  
         Al17      1.0000    0.33452   0.56521   0.91951   Biso      1.000     Al          1.7642470000000001  
         Al18      1.0000    0.54419   0.66393   0.84395   Biso      1.000     Al          1.750823  
         Al19      1.0000    0.33607   0.04419   0.15605   Biso      1.000     Al          1.750823  
         Al20      1.0000    0.43479   0.83452   0.08049   Biso      1.000     Al          1.7642470000000001  
         Al21      1.0000    0.43423   0.55065   0.33459   Biso      1.000     Al          1.7650130000000002  
         Al22      1.0000    0.16393   0.45581   0.15605   Biso      1.000     Al          1.750823  
         Al23      1.0000    0.06521   0.66548   0.08049   Biso      1.000     Al          1.7642470000000001  
         Al24      1.0000    0.05065   0.56577   0.66541   Biso      1.000     Al          1.7650130000000002  
         O1        1.0000    0.74457   0.08017   0.12230   Biso      1.000     O          -0.86201  
         O2        1.0000    0.63009   0.06064   0.23910   Biso      1.000     O          -0.865075           
         O3        1.0000    0.63802   0.13261   0.01700   Biso      1.000     O          -0.9076280000000001           
         O4        1.0000    0.65410   0.99995   0.01140   Biso      1.000     O          -0.9138440000000001           
         O5        1.0000    0.98524   0.65644   0.98360   Biso      1.000     O          -0.921999           
         O6        1.0000    0.43742   0.24461   0.19120   Biso      1.000     O          -0.853864           
         O7        1.0000    0.37815   0.12916   0.15740   Biso      1.000     O          -0.856568           
         O8        1.0000    0.49713   0.13711   0.27840   Biso      1.000     O          -0.9078620000000001           
         O9        1.0000    0.48524   0.15644   0.01640   Biso      1.000     O          -0.921999           
         O10       1.0000    0.99713   0.63711   0.72160   Biso      1.000     O          -0.9078629999999999           
         O11       1.0000    0.49539   0.01641   0.67860   Biso      1.000     O          -0.9241809999999999           
         O12       1.0000    0.62878   0.01258   0.70620   Biso      1.000     O          -0.8962469999999999           
         O13       1.0000    0.57494   0.08091   0.51090   Biso      1.000     O          -0.860392           
         O14       1.0000    0.55926   0.12405   0.75490   Biso      1.000     O          -0.871353           
         O15       1.0000    0.87815   0.62916   0.84260   Biso      1.000     O          -0.856568           
         O16       1.0000    0.75543   0.41983   0.12230   Biso      1.000     O          -0.86201  
         O17       1.0000    0.86991   0.43936   0.23910   Biso      1.000     O          -0.865075           
         O18       1.0000    0.86198   0.36739   0.01700   Biso      1.000     O          -0.9076280000000001           
         O19       1.0000    0.84590   0.50005   0.01140   Biso      1.000     O          -0.9138440000000001           
         O20       1.0000    0.93742   0.74461   0.80880   Biso      1.000     O          -0.853864           
         O21       1.0000    0.42506   0.91909   0.48910   Biso      1.000     O          -0.860392           
         O22       1.0000    0.12185   0.37084   0.15740   Biso      1.000     O          -0.856568           
         O23       1.0000    0.00287   0.36289   0.27840   Biso      1.000     O          -0.9078629999999999           
         O24       1.0000    0.12405   0.94074   0.75490   Biso      1.000     O          -0.871353           
         O25       1.0000    0.08091   0.92506   0.51090   Biso      1.000     O          -0.860391           
         O26       1.0000    0.37122   0.98742   0.29380   Biso      1.000     O          -0.8962469999999999           
         O27       1.0000    0.01641   0.00461   0.67860   Biso      1.000     O          -0.9241809999999999           
         O28       1.0000    0.43936   0.63009   0.23910   Biso      1.000     O          -0.865075           
         O29       1.0000    0.36739   0.63802   0.01700   Biso      1.000     O          -0.9076280000000001           
         O30       1.0000    0.50005   0.65410   0.01140   Biso      1.000     O          -0.9138440000000001           
         O31       1.0000    0.05926   0.62405   0.24510   Biso      1.000     O          -0.871353           
         O32       1.0000    0.25539   0.43742   0.19120   Biso      1.000     O          -0.853864           
         O33       1.0000    0.37084   0.37815   0.15740   Biso      1.000     O          -0.856569           
         O34       1.0000    0.36289   0.49713   0.27840   Biso      1.000     O          -0.9078620000000001           
         O35       1.0000    0.34356   0.48524   0.01640   Biso      1.000     O          -0.921999           
         O36       1.0000    0.07494   0.58091   0.48910   Biso      1.000     O          -0.860391           
         O37       1.0000    0.48359   0.49539   0.67860   Biso      1.000     O          -0.9241809999999999           
         O38       1.0000    0.48742   0.62878   0.70620   Biso      1.000     O          -0.8962469999999999           
         O39       1.0000    0.41909   0.57494   0.51090   Biso      1.000     O          -0.860391           
         O40       1.0000    0.37595   0.55926   0.75490   Biso      1.000     O          -0.871353           
         O41       1.0000    0.12878   0.51258   0.29380   Biso      1.000     O          -0.8962469999999999           
         O42       1.0000    0.08017   0.75543   0.12230   Biso      1.000     O          -0.86201  
         O43       1.0000    0.06064   0.86991   0.23910   Biso      1.000     O          -0.865075           
         O44       1.0000    0.13261   0.86198   0.01700   Biso      1.000     O          -0.9076280000000001           
         O45       1.0000    0.99995   0.84590   0.01140   Biso      1.000     O          -0.9138440000000001           
         O46       1.0000    0.99539   0.51641   0.32140   Biso      1.000     O          -0.9241809999999999           
         O47       1.0000    0.24461   0.06258   0.19120   Biso      1.000     O          -0.853864           
         O48       1.0000    0.12916   0.12185   0.15740   Biso      1.000     O          -0.856569           
         O49       1.0000    0.13711   0.00287   0.27840   Biso      1.000     O          -0.9078620000000001           
         O50       1.0000    0.15644   0.01476   0.01640   Biso      1.000     O          -0.921999           
         O51       1.0000    0.01476   0.34356   0.01640   Biso      1.000     O          -0.921999           
         O52       1.0000    0.01258   0.87122   0.70620   Biso      1.000     O          -0.8962469999999999           
         O53       1.0000    0.06258   0.25539   0.19120   Biso      1.000     O          -0.853864           
         O54       1.0000    0.87122   0.48742   0.70620   Biso      1.000     O          -0.8962469999999999           
         O55       1.0000    0.93936   0.13009   0.76090   Biso      1.000     O          -0.865075           
         O56       1.0000    0.86739   0.13802   0.98300   Biso      1.000     O          -0.9076280000000001           
         O57       1.0000    0.00461   0.48359   0.67860   Biso      1.000     O          -0.9241809999999999           
         O58       1.0000    0.13009   0.56064   0.76090   Biso      1.000     O          -0.865075           
         O59       1.0000    0.75539   0.93742   0.80880   Biso      1.000     O          -0.853864           
         O60       1.0000    0.87084   0.87815   0.84260   Biso      1.000     O          -0.856569           
         O61       1.0000    0.86289   0.99713   0.72160   Biso      1.000     O          -0.9078629999999999           
         O62       1.0000    0.84356   0.98524   0.98360   Biso      1.000     O          -0.921999           
         O63       1.0000    0.24457   0.58017   0.87770   Biso      1.000     O          -0.86201  
         O64       1.0000    0.98359   0.99539   0.32140   Biso      1.000     O          -0.9241809999999999           
         O65       1.0000    0.98742   0.12878   0.29380   Biso      1.000     O          -0.8962469999999999           
         O66       1.0000    0.91909   0.07494   0.48910   Biso      1.000     O          -0.860391           
         O67       1.0000    0.87595   0.05926   0.24510   Biso      1.000     O          -0.871353           
         O68       1.0000    0.25543   0.91983   0.87770   Biso      1.000     O          -0.86201  
         O69       1.0000    0.36991   0.93936   0.76090   Biso      1.000     O          -0.865075           
         O70       1.0000    0.36198   0.86739   0.98300   Biso      1.000     O          -0.9076280000000001           
         O71       1.0000    0.34590   0.00005   0.98860   Biso      1.000     O          -0.9138440000000001           
         O72       1.0000    0.56258   0.75539   0.80880   Biso      1.000     O          -0.853864           
         O73       1.0000    0.62185   0.87084   0.84260   Biso      1.000     O          -0.856569           
         O74       1.0000    0.50287   0.86289   0.72160   Biso      1.000     O          -0.9078620000000001           
         O75       1.0000    0.51476   0.84356   0.98360   Biso      1.000     O          -0.921999           
         O76       1.0000    0.44074   0.87595   0.24510   Biso      1.000     O          -0.871353           
         O77       1.0000    0.50461   0.98359   0.32140   Biso      1.000     O          -0.9241809999999999           
         O78       1.0000    0.91983   0.24457   0.87770   Biso      1.000     O          -0.86201  
         O79       1.0000    0.13802   0.63261   0.98300   Biso      1.000     O          -0.9076280000000001           
         O80       1.0000    0.00005   0.15410   0.98860   Biso      1.000     O          -0.9138440000000001           
         O81       1.0000    0.65644   0.51476   0.98360   Biso      1.000     O          -0.921999           
         O82       1.0000    0.56064   0.36991   0.76090   Biso      1.000     O          -0.865075           
         O83       1.0000    0.74461   0.56258   0.80880   Biso      1.000     O          -0.853864           
         O84       1.0000    0.58017   0.25543   0.87770   Biso      1.000     O          -0.86201  
         O85       1.0000    0.62916   0.62185   0.84260   Biso      1.000     O          -0.856569           
         O86       1.0000    0.41983   0.74457   0.12230   Biso      1.000     O          -0.86201  
         O87       1.0000    0.63711   0.50287   0.72160   Biso      1.000     O          -0.9078620000000001           
         O88       1.0000    0.49995   0.34590   0.98860   Biso      1.000     O          -0.9138440000000001           
         O89       1.0000    0.94074   0.37595   0.75490   Biso      1.000     O          -0.871353           
         O90       1.0000    0.63261   0.36198   0.98300   Biso      1.000     O          -0.9076280000000001           
         O91       1.0000    0.15410   0.49995   0.98860   Biso      1.000     O          -0.9138440000000001           
         O92       1.0000    0.51641   0.50461   0.32140   Biso      1.000     O          -0.9241809999999999           
         O93       1.0000    0.51258   0.37122   0.29380   Biso      1.000     O          -0.8962469999999999           
         O94       1.0000    0.92506   0.41909   0.51090   Biso      1.000     O          -0.860391           
         O95       1.0000    0.58091   0.42506   0.48910   Biso      1.000     O          -0.860391           
         O96       1.0000    0.62405   0.44074   0.24510   Biso      1.000     O          -0.871353           
         P1        1.0000    0.93511   0.44280   0.66442   Biso      1.000     P          1.78877   
         P2        1.0000    0.55034   0.83359   0.83978   Biso      1.000     P          1.78397   
         P3        1.0000    0.05034   0.33359   0.16022   Biso      1.000     P          1.78397   
         P4        1.0000    0.43511   0.94280   0.33558   Biso      1.000     P          1.78877   
         P5        1.0000    0.33359   0.44966   0.16022   Biso      1.000     P          1.78397   
         P6        1.0000    0.33418   0.93267   0.90451   Biso      1.000     P          1.7882    
         P7        1.0000    0.83418   0.43267   0.09549   Biso      1.000     P          1.7882    
         P8        1.0000    0.43267   0.66582   0.09549   Biso      1.000     P          1.7882    
         P9        1.0000    0.66582   0.06733   0.09549   Biso      1.000     P          1.7882    
         P10       1.0000    0.16582   0.56733   0.90451   Biso      1.000     P          1.7882    
         P11       1.0000    0.94280   0.06489   0.33558   Biso      1.000     P          1.78877   
         P12       1.0000    0.56733   0.33418   0.90451   Biso      1.000     P          1.7882    
         P13       1.0000    0.55720   0.43511   0.33558   Biso      1.000     P          1.78877   
         P14       1.0000    0.56489   0.05720   0.66442   Biso      1.000     P          1.78877   
         P15       1.0000    0.06733   0.83418   0.09549   Biso      1.000     P          1.7882    
         P16       1.0000    0.83359   0.94966   0.83978   Biso      1.000     P          1.78397   
         P17       1.0000    0.66641   0.55034   0.83978   Biso      1.000     P          1.78397   
         P18       1.0000    0.16641   0.05034   0.16022   Biso      1.000     P          1.78397   
         P19       1.0000    0.44966   0.16641   0.16022   Biso      1.000     P          1.78397   
         P20       1.0000    0.93267   0.16582   0.90451   Biso      1.000     P          1.7882    
         P21       1.0000    0.05720   0.93511   0.66442   Biso      1.000     P          1.78877   
         P22       1.0000    0.94966   0.66641   0.83978   Biso      1.000     P          1.78397   
         P23       1.0000    0.44280   0.56489   0.66442   Biso      1.000     P          1.78877   
         P24       1.0000    0.06489   0.55720   0.33558   Biso      1.000     P          1.78877 