
##########################################################################
#               Crystallographic Information Format file
#               Produced by PyCifRW module
#
#  This is a CIF file.  CIF has been adopted by the International
#  Union of Crystallography as the standard for data archiving and
#  transmission.
#
#  For information on this file format, follow the CIF links at
#  http://www.iucr.org
##########################################################################

data_image0

_cell_length_a                          12.066
_cell_length_b                          16.121
_cell_length_c                          15.099
_cell_angle_alpha                       90
_cell_angle_beta                        90
_cell_angle_gamma                       90
_symmetry_space_group_name_H-M          'P 1'
_symmetry_int_tables_number             1
loop_
  _symmetry_equiv_pos_as_xyz
         'x, y, z' 
loop_
  _atom_site_label
  _atom_site_occupancy
  _atom_site_fract_x
  _atom_site_fract_y
  _atom_site_fract_z
  _atom_site_thermal_displace_type
  _atom_site_B_iso_or_equiv
  _atom_site_type_symbol
  _atom_site_charge
         Au1       1.0000    0.75000   0.00000   0.60729   Biso      1.000     Au          -0.009771           
         Au2       1.0000    0.25000   0.50000   0.60729   Biso      1.000     Au          -0.009769           
         Au3       1.0000    0.75000   0.50000   0.39271   Biso      1.000     Au          -0.009766           
         Au4       1.0000    0.25000   0.50000   0.39271   Biso      1.000     Au          -0.009769           
         Au5       1.0000    0.75000   0.00000   0.39271   Biso      1.000     Au          -0.00977  
         Au6       1.0000    0.75000   0.50000   0.60729   Biso      1.000     Au          -0.009766           
         Au7       1.0000    0.25000   0.00000   0.39271   Biso      1.000     Au          -0.009769           
         Au8       1.0000    0.25000   0.00000   0.60729   Biso      1.000     Au          -0.009769           
         C1        1.0000    0.90050   0.75000   0.11500   Biso      1.000     C          -0.157593           
         C2        1.0000    0.16400   0.39580   0.61090   Biso      1.000     C          0.053339  
         C3        1.0000    0.90310   0.25000   0.34480   Biso      1.000     C          -0.158825           
         C4        1.0000    0.09490   0.25000   0.43710   Biso      1.000     C          0.095569  
         C5        1.0000    0.09500   0.75000   0.20610   Biso      1.000     C          0.092011  
         C6        1.0000    0.90050   0.25000   0.88500   Biso      1.000     C          -0.157596           
         C7        1.0000    0.09950   0.75000   0.11500   Biso      1.000     C          -0.15758  
         C8        1.0000    0.50000   0.75000   0.03110   Biso      1.000     C          0.25294   
         C9        1.0000    0.09690   0.75000   0.65520   Biso      1.000     C          -0.158828           
         C10       1.0000    0.90500   0.25000   0.79390   Biso      1.000     C          0.092022  
         C11       1.0000    0.09490   0.75000   0.56290   Biso      1.000     C          0.095568  
         C12       1.0000    0.66400   0.89580   0.61090   Biso      1.000     C          0.053341  
         C13       1.0000    0.40510   0.75000   0.43710   Biso      1.000     C          0.095567  
         C14       1.0000    0.50000   0.75000   0.20020   Biso      1.000     C          0.254261  
         C15       1.0000    0.40500   0.25000   0.20610   Biso      1.000     C          0.092011  
         C16       1.0000    0.40310   0.75000   0.34480   Biso      1.000     C          -0.158828           
         C17       1.0000    0.83600   0.10420   0.61090   Biso      1.000     C          0.053339  
         C18       1.0000    0.40310   0.25000   0.65520   Biso      1.000     C          -0.158827           
         C19       1.0000    0.59490   0.25000   0.56290   Biso      1.000     C          0.095569  
         C20       1.0000    0.90510   0.75000   0.56290   Biso      1.000     C          0.095568  
         C21       1.0000    0.00000   0.25000   0.93300   Biso      1.000     C          0.040695  
         C22       1.0000    0.90310   0.75000   0.65520   Biso      1.000     C          -0.158828           
         C23       1.0000    0.40050   0.75000   0.88500   Biso      1.000     C          -0.157576           
         C24       1.0000    0.00000   0.25000   0.03110   Biso      1.000     C          0.252908  
         C25       1.0000    0.40510   0.25000   0.56290   Biso      1.000     C          0.095569  
         C26       1.0000    0.50000   0.75000   0.29940   Biso      1.000     C          0.053756  
         C27       1.0000    0.40500   0.75000   0.79390   Biso      1.000     C          0.092022  
         C28       1.0000    0.00000   0.25000   0.29940   Biso      1.000     C          0.053766  
         C29       1.0000    0.90500   0.75000   0.20610   Biso      1.000     C          0.092024  
         C30       1.0000    0.00000   0.25000   0.20020   Biso      1.000     C          0.254265  
         C31       1.0000    0.40050   0.25000   0.11500   Biso      1.000     C          -0.15756  
         C32       1.0000    0.90510   0.25000   0.43710   Biso      1.000     C          0.095571  
         C33       1.0000    0.59500   0.75000   0.79390   Biso      1.000     C          0.092009  
         C34       1.0000    0.50000   0.75000   0.93300   Biso      1.000     C          0.040691  
         C35       1.0000    0.66400   0.10420   0.38910   Biso      1.000     C          0.053333  
         C36       1.0000    0.16400   0.10420   0.61090   Biso      1.000     C          0.053339  
         C37       1.0000    0.16400   0.60420   0.38910   Biso      1.000     C          0.053347  
         C38       1.0000    0.09690   0.25000   0.34480   Biso      1.000     C          -0.15881  
         C39       1.0000    0.33600   0.39580   0.38910   Biso      1.000     C          0.053333  
         C40       1.0000    0.83600   0.89580   0.38910   Biso      1.000     C          0.053347  
         C41       1.0000    0.09950   0.25000   0.88500   Biso      1.000     C          -0.157597           
         C42       1.0000    0.66400   0.39580   0.38910   Biso      1.000     C          0.053333  
         C43       1.0000    0.66400   0.60420   0.61090   Biso      1.000     C          0.05334   
         C44       1.0000    0.16400   0.89580   0.38910   Biso      1.000     C          0.053347  
         C45       1.0000    0.09500   0.25000   0.79390   Biso      1.000     C          0.092023  
         C46       1.0000    0.33600   0.10420   0.38910   Biso      1.000     C          0.053333  
         C47       1.0000    0.83600   0.60420   0.38910   Biso      1.000     C          0.053347  
         C48       1.0000    0.59490   0.75000   0.43710   Biso      1.000     C          0.095566  
         C49       1.0000    0.59690   0.25000   0.65520   Biso      1.000     C          -0.158827           
         C50       1.0000    0.83600   0.39580   0.61090   Biso      1.000     C          0.053339  
         C51       1.0000    0.50000   0.25000   0.96890   Biso      1.000     C          0.25293   
         C52       1.0000    0.59950   0.25000   0.11500   Biso      1.000     C          -0.157573           
         C53       1.0000    0.59500   0.25000   0.20610   Biso      1.000     C          0.092023  
         C54       1.0000    0.33600   0.89580   0.61090   Biso      1.000     C          0.05334   
         C55       1.0000    0.59950   0.75000   0.88500   Biso      1.000     C          -0.157565           
         C56       1.0000    0.00000   0.75000   0.70060   Biso      1.000     C          0.053781  
         C57       1.0000    0.00000   0.75000   0.79980   Biso      1.000     C          0.254261  
         C58       1.0000    0.50000   0.25000   0.06700   Biso      1.000     C          0.040698  
         C59       1.0000    0.00000   0.75000   0.96890   Biso      1.000     C          0.252892  
         C60       1.0000    0.59690   0.75000   0.34480   Biso      1.000     C          -0.158815           
         C61       1.0000    0.50000   0.25000   0.70060   Biso      1.000     C          0.053777  
         C62       1.0000    0.50000   0.25000   0.79980   Biso      1.000     C          0.254279  
         C63       1.0000    0.00000   0.75000   0.06700   Biso      1.000     C          0.040697  
         C64       1.0000    0.33600   0.60420   0.61090   Biso      1.000     C          0.05334   
         Fe1       1.0000    0.50000   0.75000   0.61550   Biso      1.000     Fe          0.526974  
         Fe2       1.0000    0.00000   0.75000   0.38450   Biso      1.000     Fe          0.526999  
         Fe3       1.0000    0.50000   0.25000   0.38450   Biso      1.000     Fe          0.526971  
         Fe4       1.0000    0.00000   0.25000   0.61550   Biso      1.000     Fe          0.526975  
         H1        1.0000    0.83670   0.75000   0.53170   Biso      1.000     H          0.099318  
         H2        1.0000    0.33110   0.75000   0.91480   Biso      1.000     H          0.122192  
         H3        1.0000    0.33450   0.75000   0.31400   Biso      1.000     H          0.122185  
         H4        1.0000    0.33670   0.75000   0.46830   Biso      1.000     H          0.099319  
         H5        1.0000    0.83710   0.25000   0.76200   Biso      1.000     H          0.092943  
         H6        1.0000    0.83450   0.25000   0.31400   Biso      1.000     H          0.122185  
         H7        1.0000    0.83670   0.25000   0.46830   Biso      1.000     H          0.099321  
         H8        1.0000    0.66290   0.75000   0.76200   Biso      1.000     H          0.092943  
         H9        1.0000    0.66890   0.75000   0.91480   Biso      1.000     H          0.122191  
         H10       1.0000    0.66550   0.75000   0.31400   Biso      1.000     H          0.122184  
         H11       1.0000    0.66330   0.75000   0.46830   Biso      1.000     H          0.099319  
         H12       1.0000    0.16290   0.25000   0.76200   Biso      1.000     H          0.092943  
         H13       1.0000    0.16890   0.25000   0.91480   Biso      1.000     H          0.12219   
         H14       1.0000    0.16550   0.25000   0.31400   Biso      1.000     H          0.122185  
         H15       1.0000    0.33710   0.75000   0.76200   Biso      1.000     H          0.092942  
         H16       1.0000    0.83110   0.25000   0.91480   Biso      1.000     H          0.122192  
         H17       1.0000    0.16330   0.25000   0.46830   Biso      1.000     H          0.099321  
         H18       1.0000    0.16550   0.75000   0.68600   Biso      1.000     H          0.122184  
         H19       1.0000    0.16290   0.75000   0.23800   Biso      1.000     H          0.092941  
         H20       1.0000    0.16890   0.75000   0.08520   Biso      1.000     H          0.122187  
         H21       1.0000    0.66890   0.25000   0.08520   Biso      1.000     H          0.122191  
         H22       1.0000    0.16330   0.75000   0.53170   Biso      1.000     H          0.099318  
         H23       1.0000    0.66290   0.25000   0.23800   Biso      1.000     H          0.092942  
         H24       1.0000    0.33710   0.25000   0.23800   Biso      1.000     H          0.092943  
         H25       1.0000    0.33110   0.25000   0.08520   Biso      1.000     H          0.122189  
         H26       1.0000    0.33450   0.25000   0.68600   Biso      1.000     H          0.122184  
         H27       1.0000    0.33670   0.25000   0.53170   Biso      1.000     H          0.09932   
         H28       1.0000    0.66550   0.25000   0.68600   Biso      1.000     H          0.122184  
         H29       1.0000    0.83710   0.75000   0.23800   Biso      1.000     H          0.092941  
         H30       1.0000    0.66330   0.25000   0.53170   Biso      1.000     H          0.09932   
         H31       1.0000    0.83450   0.75000   0.68600   Biso      1.000     H          0.122184  
         H32       1.0000    0.83110   0.75000   0.08520   Biso      1.000     H          0.122188  
         N1        1.0000    0.11020   0.66310   0.38550   Biso      1.000     N          -0.294994           
         N2        1.0000    0.38980   0.33690   0.38550   Biso      1.000     N          -0.29499  
         N3        1.0000    0.88980   0.83690   0.38550   Biso      1.000     N          -0.294994           
         N4        1.0000    0.59870   0.75000   0.07220   Biso      1.000     N          -0.134155           
         N5        1.0000    0.59820   0.75000   0.16020   Biso      1.000     N          -0.127656           
         N6        1.0000    0.61020   0.33690   0.38550   Biso      1.000     N          -0.294989           
         N7        1.0000    0.11020   0.83690   0.38550   Biso      1.000     N          -0.294994           
         N8        1.0000    0.59820   0.25000   0.83980   Biso      1.000     N          -0.127718           
         N9        1.0000    0.09820   0.25000   0.16020   Biso      1.000     N          -0.12772  
         N10       1.0000    0.09870   0.25000   0.07220   Biso      1.000     N          -0.134094           
         N11       1.0000    0.88980   0.66310   0.38550   Biso      1.000     N          -0.294993           
         N12       1.0000    0.59870   0.25000   0.92780   Biso      1.000     N          -0.134091           
         N13       1.0000    0.00000   0.75000   0.51640   Biso      1.000     N          -0.117356           
         N14       1.0000    0.50000   0.25000   0.25270   Biso      1.000     N          -0.11715  
         N15       1.0000    0.50000   0.25000   0.51640   Biso      1.000     N          -0.11735  
         N16       1.0000    0.38980   0.16310   0.38550   Biso      1.000     N          -0.29499  
         N17       1.0000    0.00000   0.75000   0.25270   Biso      1.000     N          -0.117156           
         N18       1.0000    0.61020   0.66310   0.61450   Biso      1.000     N          -0.294984           
         N19       1.0000    0.09820   0.75000   0.83980   Biso      1.000     N          -0.127727           
         N20       1.0000    0.88980   0.33690   0.61450   Biso      1.000     N          -0.294986           
         N21       1.0000    0.50000   0.75000   0.74730   Biso      1.000     N          -0.117159           
         N22       1.0000    0.50000   0.75000   0.48360   Biso      1.000     N          -0.117357           
         N23       1.0000    0.38980   0.83690   0.61450   Biso      1.000     N          -0.294985           
         N24       1.0000    0.11020   0.33690   0.61450   Biso      1.000     N          -0.294987           
         N25       1.0000    0.61020   0.83690   0.61450   Biso      1.000     N          -0.294986           
         N26       1.0000    0.88980   0.16310   0.61450   Biso      1.000     N          -0.294987           
         N27       1.0000    0.38980   0.66310   0.61450   Biso      1.000     N          -0.294985           
         N28       1.0000    0.00000   0.25000   0.74730   Biso      1.000     N          -0.117151           
         N29       1.0000    0.00000   0.25000   0.48360   Biso      1.000     N          -0.117352           
         N30       1.0000    0.90180   0.75000   0.83980   Biso      1.000     N          -0.127727           
         N31       1.0000    0.40130   0.75000   0.07220   Biso      1.000     N          -0.134155           
         N32       1.0000    0.40180   0.75000   0.16020   Biso      1.000     N          -0.127655           
         N33       1.0000    0.90130   0.75000   0.92780   Biso      1.000     N          -0.134095           
         N34       1.0000    0.40180   0.25000   0.83980   Biso      1.000     N          -0.127718           
         N35       1.0000    0.40130   0.25000   0.92780   Biso      1.000     N          -0.134092           
         N36       1.0000    0.90130   0.25000   0.07220   Biso      1.000     N          -0.134156           
         N37       1.0000    0.90180   0.25000   0.16020   Biso      1.000     N          -0.127658           
         N38       1.0000    0.11020   0.16310   0.61450   Biso      1.000     N          -0.294987           
         N39       1.0000    0.09870   0.75000   0.92780   Biso      1.000     N          -0.134095           
         N40       1.0000    0.61020   0.16310   0.38550   Biso      1.000     N          -0.29499 