
##########################################################################
#               Crystallographic Information Format file
#               Produced by PyCifRW module
#
#  This is a CIF file.  CIF has been adopted by the International
#  Union of Crystallography as the standard for data archiving and
#  transmission.
#
#  For information on this file format, follow the CIF links at
#  http://www.iucr.org
##########################################################################

data_image0

_cell_length_a                          10.041
_cell_length_b                          9.22
_cell_length_c                          10.469
_cell_angle_alpha                       90
_cell_angle_beta                        91.6
_cell_angle_gamma                       90
_symmetry_space_group_name_H-M          'P 1'
_symmetry_int_tables_number             1
loop_
  _symmetry_equiv_pos_as_xyz
         'x, y, z' 
loop_
  _atom_site_label
  _atom_site_occupancy
  _atom_site_fract_x
  _atom_site_fract_y
  _atom_site_fract_z
  _atom_site_thermal_displace_type
  _atom_site_B_iso_or_equiv
  _atom_site_type_symbol
  _atom_site_charge
         Ga1       1.0000    0.37134   0.09184   0.83895   Biso      1.000     Ga          1.5344309999999999  
         Ga2       1.0000    0.37134   0.40816   0.33895   Biso      1.000     Ga          1.5344309999999999  
         Ga3       1.0000    0.62866   0.59184   0.66105   Biso      1.000     Ga          1.53443   
         Ga4       1.0000    0.87134   0.59184   0.33895   Biso      1.000     Ga          1.5344309999999999  
         Ga5       1.0000    0.12866   0.40816   0.66105   Biso      1.000     Ga          1.53443   
         Ga6       1.0000    0.87134   0.90816   0.83895   Biso      1.000     Ga          1.53443   
         Ga7       1.0000    0.62866   0.90816   0.16105   Biso      1.000     Ga          1.534432  
         Ga8       1.0000    0.12866   0.09184   0.16105   Biso      1.000     Ga          1.53443   
         O1        1.0000    0.31330   0.06570   0.15810   Biso      1.000     O          -0.8291370000000001           
         O2        1.0000    0.41900   0.31420   0.18960   Biso      1.000     O          -0.7776810000000001           
         O3        1.0000    0.55950   0.09660   0.16830   Biso      1.000     O          -0.764189           
         O4        1.0000    0.42930   0.19820   0.98180   Biso      1.000     O          -0.807006           
         O5        1.0000    0.81330   0.56570   0.65810   Biso      1.000     O          -0.8291370000000001           
         O6        1.0000    0.05950   0.59660   0.66830   Biso      1.000     O          -0.764188           
         O7        1.0000    0.92930   0.69820   0.48180   Biso      1.000     O          -0.807006           
         O8        1.0000    0.18670   0.06570   0.84190   Biso      1.000     O          -0.8291370000000001           
         O9        1.0000    0.08100   0.31420   0.81040   Biso      1.000     O          -0.77768  
         O10       1.0000    0.94050   0.09660   0.83170   Biso      1.000     O          -0.764188           
         O11       1.0000    0.07070   0.19820   0.01820   Biso      1.000     O          -0.807005           
         O12       1.0000    0.68670   0.56570   0.34190   Biso      1.000     O          -0.8291370000000001           
         O13       1.0000    0.58100   0.81420   0.31040   Biso      1.000     O          -0.7776810000000001           
         O14       1.0000    0.91900   0.81420   0.68960   Biso      1.000     O          -0.7776810000000001           
         O15       1.0000    0.44050   0.59660   0.33170   Biso      1.000     O          -0.764188           
         O16       1.0000    0.42930   0.30180   0.48180   Biso      1.000     O          -0.807006           
         O17       1.0000    0.41900   0.18580   0.68960   Biso      1.000     O          -0.7776810000000001           
         O18       1.0000    0.68670   0.93430   0.84190   Biso      1.000     O          -0.8291360000000001           
         O19       1.0000    0.58100   0.68580   0.81040   Biso      1.000     O          -0.77768  
         O20       1.0000    0.44050   0.90340   0.83170   Biso      1.000     O          -0.764188           
         O21       1.0000    0.57070   0.80180   0.01820   Biso      1.000     O          -0.807006           
         O22       1.0000    0.18670   0.43430   0.34190   Biso      1.000     O          -0.8291370000000001           
         O23       1.0000    0.08100   0.18580   0.31040   Biso      1.000     O          -0.77768  
         O24       1.0000    0.55950   0.40340   0.66830   Biso      1.000     O          -0.764188           
         O25       1.0000    0.07070   0.30180   0.51820   Biso      1.000     O          -0.807006           
         O26       1.0000    0.94050   0.40340   0.33170   Biso      1.000     O          -0.764188           
         O27       1.0000    0.81330   0.93430   0.15810   Biso      1.000     O          -0.829139           
         O28       1.0000    0.91900   0.68580   0.18960   Biso      1.000     O          -0.7776810000000001           
         O29       1.0000    0.05950   0.90340   0.16830   Biso      1.000     O          -0.764188           
         O30       1.0000    0.92930   0.80180   0.98180   Biso      1.000     O          -0.807006           
         O31       1.0000    0.31330   0.43430   0.65810   Biso      1.000     O          -0.8291370000000001           
         O32       1.0000    0.57070   0.69820   0.51820   Biso      1.000     O          -0.807005           
         P1        1.0000    0.92810   0.66635   0.62580   Biso      1.000     P          1.6435810000000002  
         P2        1.0000    0.07190   0.16635   0.87420   Biso      1.000     P          1.6435810000000002  
         P3        1.0000    0.07190   0.33365   0.37420   Biso      1.000     P          1.6435819999999999  
         P4        1.0000    0.42810   0.33365   0.62580   Biso      1.000     P          1.6435810000000002  
         P5        1.0000    0.57190   0.66635   0.37420   Biso      1.000     P          1.6435790000000001  
         P6        1.0000    0.42810   0.16635   0.12580   Biso      1.000     P          1.6435830000000002  
         P7        1.0000    0.57190   0.83365   0.87420   Biso      1.000     P          1.643578  
         P8        1.0000    0.92810   0.83365   0.12580   Biso      1.000     P          1.6435830000000002 