
##########################################################################
#               Crystallographic Information Format file
#               Produced by PyCifRW module
#
#  This is a CIF file.  CIF has been adopted by the International
#  Union of Crystallography as the standard for data archiving and
#  transmission.
#
#  For information on this file format, follow the CIF links at
#  http://www.iucr.org
##########################################################################

data_image0

_cell_length_a                          25.004
_cell_length_b                          25.004
_cell_length_c                          8.6253
_cell_angle_alpha                       90
_cell_angle_beta                        90
_cell_angle_gamma                       120
_symmetry_space_group_name_H-M          'P 1'
_symmetry_int_tables_number             1
loop_
  _symmetry_equiv_pos_as_xyz
         'x, y, z' 
loop_
  _atom_site_label
  _atom_site_occupancy
  _atom_site_fract_x
  _atom_site_fract_y
  _atom_site_fract_z
  _atom_site_thermal_displace_type
  _atom_site_B_iso_or_equiv
  _atom_site_type_symbol
  _atom_site_charge
         C1        1.0000    0.36236   0.18118   0.51280   Biso      1.000     C          -0.23356  
         C2        1.0000    0.79377   0.68069   0.74063   Biso      1.000     C          0.144025  
         C3        1.0000    0.81882   0.18118   0.51280   Biso      1.000     C          -0.23360799999999998          
         C4        1.0000    0.46043   0.01403   0.07397   Biso      1.000     C          0.144896  
         C5        1.0000    0.69569   0.84785   0.17947   Biso      1.000     C          -0.234301           
         C6        1.0000    0.12710   0.77974   0.40730   Biso      1.000     C          0.144706  
         C7        1.0000    0.79377   0.11307   0.74063   Biso      1.000     C          0.144262  
         C8        1.0000    0.02903   0.51451   0.84613   Biso      1.000     C          -0.234123           
         C9        1.0000    0.46043   0.44641   0.07397   Biso      1.000     C          0.144949  
         C10       1.0000    0.22026   0.34736   0.40730   Biso      1.000     C          0.144647  
         C11       1.0000    0.88693   0.68069   0.74063   Biso      1.000     C          0.14398699999999998           
         C12       1.0000    0.55359   0.01403   0.07397   Biso      1.000     C          0.14491199999999999           
         C13       1.0000    0.15215   0.30431   0.17947   Biso      1.000     C          -0.234301           
         C14       1.0000    0.65264   0.87290   0.40730   Biso      1.000     C          0.14466600000000002           
         C15       1.0000    0.31931   0.20623   0.74063   Biso      1.000     C          0.144025  
         C16       1.0000    0.48549   0.97097   0.84613   Biso      1.000     C          -0.234123           
         C17       1.0000    0.98597   0.53957   0.07397   Biso      1.000     C          0.144896  
         C18       1.0000    0.77974   0.12710   0.59270   Biso      1.000     C          0.144707  
         C19       1.0000    0.81882   0.63764   0.51280   Biso      1.000     C          -0.23356  
         C20       1.0000    0.44641   0.46043   0.92603   Biso      1.000     C          0.144949  
         C21       1.0000    0.11307   0.79377   0.25937   Biso      1.000     C          0.14426   
         C22       1.0000    0.15215   0.84785   0.17947   Biso      1.000     C          -0.23457199999999997          
         C23       1.0000    0.34736   0.22026   0.59270   Biso      1.000     C          0.144644  
         C24       1.0000    0.20623   0.31931   0.25937   Biso      1.000     C          0.144026  
         C25       1.0000    0.01403   0.55359   0.92603   Biso      1.000     C          0.14490899999999998           
         C26       1.0000    0.48549   0.51451   0.84613   Biso      1.000     C          -0.234159           
         C27       1.0000    0.68069   0.88693   0.25937   Biso      1.000     C          0.143988  
         C28       1.0000    0.87290   0.65264   0.59270   Biso      1.000     C          0.144663  
         C29       1.0000    0.18118   0.81882   0.48720   Biso      1.000     C          -0.23360799999999998          
         C30       1.0000    0.12710   0.34736   0.40730   Biso      1.000     C          0.14466600000000002           
         C31       1.0000    0.53957   0.98597   0.92603   Biso      1.000     C          0.144896  
         C32       1.0000    0.98597   0.44641   0.07397   Biso      1.000     C          0.14491199999999999           
         C33       1.0000    0.11307   0.31931   0.25937   Biso      1.000     C          0.143988  
         C34       1.0000    0.18118   0.36236   0.48720   Biso      1.000     C          -0.23356  
         C35       1.0000    0.97097   0.48549   0.15387   Biso      1.000     C          -0.234123           
         C36       1.0000    0.34736   0.12710   0.59270   Biso      1.000     C          0.14466600000000002           
         C37       1.0000    0.77974   0.65264   0.59270   Biso      1.000     C          0.144647  
         C38       1.0000    0.51451   0.02903   0.15387   Biso      1.000     C          -0.234123           
         C39       1.0000    0.01403   0.46043   0.92603   Biso      1.000     C          0.144896  
         C40       1.0000    0.30431   0.15215   0.82053   Biso      1.000     C          -0.2343   
         C41       1.0000    0.68069   0.79377   0.25937   Biso      1.000     C          0.144026  
         C42       1.0000    0.20623   0.88693   0.25937   Biso      1.000     C          0.144263  
         C43       1.0000    0.22026   0.87290   0.40730   Biso      1.000     C          0.144706  
         C44       1.0000    0.84785   0.69569   0.82053   Biso      1.000     C          -0.23429899999999998          
         C45       1.0000    0.63764   0.81882   0.48720   Biso      1.000     C          -0.23356  
         C46       1.0000    0.88693   0.20623   0.74063   Biso      1.000     C          0.144262  
         C47       1.0000    0.55359   0.53957   0.07397   Biso      1.000     C          0.144949  
         C48       1.0000    0.51451   0.48549   0.15387   Biso      1.000     C          -0.234159           
         C49       1.0000    0.65264   0.77974   0.40730   Biso      1.000     C          0.144647  
         C50       1.0000    0.87290   0.22026   0.59270   Biso      1.000     C          0.144704  
         C51       1.0000    0.31931   0.11307   0.74063   Biso      1.000     C          0.143988  
         C52       1.0000    0.84785   0.15215   0.82053   Biso      1.000     C          -0.234571           
         C53       1.0000    0.53957   0.55359   0.92603   Biso      1.000     C          0.144949  
         C54       1.0000    0.44641   0.98597   0.92603   Biso      1.000     C          0.14491199999999999           
         Cl1       1.0000    0.23793   0.33333   0.83333   Biso      1.000     Cl          -0.447601           
         Cl2       1.0000    0.57126   0.57126   0.50000   Biso      1.000     Cl          -0.447672           
         Cl3       1.0000    0.33333   0.09541   0.16667   Biso      1.000     Cl          -0.447671           
         Cl4       1.0000    0.90459   0.66667   0.16667   Biso      1.000     Cl          -0.447671           
         Cl5       1.0000    0.76207   0.09541   0.16667   Biso      1.000     Cl          -0.447565           
         Cl6       1.0000    0.57126   0.00000   0.50000   Biso      1.000     Cl          -0.447642           
         Cl7       1.0000    0.90459   0.23793   0.16667   Biso      1.000     Cl          -0.447565           
         Cl8       1.0000    0.09541   0.76207   0.83333   Biso      1.000     Cl          -0.447565           
         Cl9       1.0000    0.42874   0.00000   0.50000   Biso      1.000     Cl          -0.447642           
         Cl10      1.0000    0.42874   0.42874   0.50000   Biso      1.000     Cl          -0.447672           
         Cl11      1.0000    0.33333   0.23793   0.16667   Biso      1.000     Cl          -0.447601           
         Cl12      1.0000    0.09541   0.33333   0.83333   Biso      1.000     Cl          -0.447671           
         Cl13      1.0000    0.66667   0.90459   0.83333   Biso      1.000     Cl          -0.447671           
         Cl14      1.0000    0.76207   0.66667   0.16667   Biso      1.000     Cl          -0.447601           
         Cl15      1.0000    0.23793   0.90459   0.83333   Biso      1.000     Cl          -0.447565           
         Cl16      1.0000    0.00000   0.57126   0.50000   Biso      1.000     Cl          -0.447642           
         Cl17      1.0000    0.00000   0.42874   0.50000   Biso      1.000     Cl          -0.447642           
         Cl18      1.0000    0.66667   0.76207   0.83333   Biso      1.000     Cl          -0.447601           
         H1        1.0000    0.47617   0.52383   0.74653   Biso      1.000     H          0.145993  
         H2        1.0000    0.85717   0.71433   0.92013   Biso      1.000     H          0.147208  
         H3        1.0000    0.19050   0.38100   0.58680   Biso      1.000     H          0.147072  
         H4        1.0000    0.95233   0.47617   0.25347   Biso      1.000     H          0.145953  
         H5        1.0000    0.28567   0.14283   0.92013   Biso      1.000     H          0.147208  
         H6        1.0000    0.61900   0.80950   0.58680   Biso      1.000     H          0.147072  
         H7        1.0000    0.52383   0.47617   0.25347   Biso      1.000     H          0.145993  
         H8        1.0000    0.85717   0.14283   0.92013   Biso      1.000     H          0.147084  
         H9        1.0000    0.19050   0.80950   0.58680   Biso      1.000     H          0.14708800000000002           
         H10       1.0000    0.71433   0.85717   0.07987   Biso      1.000     H          0.147208  
         H11       1.0000    0.04767   0.52383   0.74653   Biso      1.000     H          0.145953  
         H12       1.0000    0.38100   0.19050   0.41320   Biso      1.000     H          0.147072  
         H13       1.0000    0.14283   0.28567   0.07987   Biso      1.000     H          0.147208  
         H14       1.0000    0.47617   0.95233   0.74653   Biso      1.000     H          0.145953  
         H15       1.0000    0.80950   0.61900   0.41320   Biso      1.000     H          0.147072  
         H16       1.0000    0.14283   0.85717   0.07987   Biso      1.000     H          0.147084  
         H17       1.0000    0.80950   0.19050   0.41320   Biso      1.000     H          0.14708800000000002           
         H18       1.0000    0.52383   0.04767   0.25347   Biso      1.000     H          0.145953  
         Mn1       1.0000    0.72002   0.72002   0.00000   Biso      1.000     Mn          0.7056439999999999  
         Mn2       1.0000    0.66667   0.05335   0.33333   Biso      1.000     Mn          0.7045640000000001  
         Mn3       1.0000    0.94665   0.61331   0.33333   Biso      1.000     Mn          0.704692  
         Mn4       1.0000    0.94665   0.33333   0.33333   Biso      1.000     Mn          0.704561  
         Mn5       1.0000    0.66667   0.61331   0.33333   Biso      1.000     Mn          0.70473   
         Mn6       1.0000    0.33333   0.94665   0.66667   Biso      1.000     Mn          0.7045640000000001  
         Mn7       1.0000    0.00000   0.27998   0.00000   Biso      1.000     Mn          0.7055020000000001  
         Mn8       1.0000    0.61331   0.66667   0.66667   Biso      1.000     Mn          0.70473   
         Mn9       1.0000    0.27998   0.00000   0.00000   Biso      1.000     Mn          0.7055020000000001  
         Mn10      1.0000    0.38669   0.05335   0.33333   Biso      1.000     Mn          0.704692  
         Mn11      1.0000    0.05335   0.66667   0.66667   Biso      1.000     Mn          0.704563  
         Mn12      1.0000    0.72002   0.00000   0.00000   Biso      1.000     Mn          0.705501  
         Mn13      1.0000    0.38669   0.33333   0.33333   Biso      1.000     Mn          0.704727  
         Mn14      1.0000    0.33333   0.38669   0.66667   Biso      1.000     Mn          0.7047329999999999  
         Mn15      1.0000    0.00000   0.72002   0.00000   Biso      1.000     Mn          0.7055020000000001  
         Mn16      1.0000    0.61331   0.94665   0.66667   Biso      1.000     Mn          0.704692  
         Mn17      1.0000    0.05335   0.38669   0.66667   Biso      1.000     Mn          0.704695  
         Mn18      1.0000    0.27998   0.27998   0.00000   Biso      1.000     Mn          0.7056439999999999  
         N1        1.0000    0.74511   0.68841   0.78283   Biso      1.000     N          -0.233779           
         N2        1.0000    0.41177   0.02175   0.11617   Biso      1.000     N          -0.23308800000000002          
         N3        1.0000    0.07844   0.72336   0.44950   Biso      1.000     N          -0.23470100000000002          
         N4        1.0000    0.74511   0.05669   0.78283   Biso      1.000     N          -0.23382600000000003          
         N5        1.0000    0.94331   0.68841   0.78283   Biso      1.000     N          -0.233699           
         N6        1.0000    0.27664   0.35508   0.44950   Biso      1.000     N          -0.23471799999999998          
         N7        1.0000    0.60997   0.02175   0.11617   Biso      1.000     N          -0.23316199999999998          
         N8        1.0000    0.64492   0.92156   0.44950   Biso      1.000     N          -0.23473400000000003          
         N9        1.0000    0.07844   0.35508   0.44950   Biso      1.000     N          -0.23473400000000003          
         N10       1.0000    0.41177   0.39003   0.11617   Biso      1.000     N          -0.233213           
         N11       1.0000    0.97825   0.39003   0.11617   Biso      1.000     N          -0.23316199999999998          
         N12       1.0000    0.35508   0.07844   0.55050   Biso      1.000     N          -0.23473400000000003          
         N13       1.0000    0.64492   0.72336   0.44950   Biso      1.000     N          -0.234717           
         N14       1.0000    0.60997   0.58823   0.11617   Biso      1.000     N          -0.23321399999999998          
         N15       1.0000    0.94331   0.25489   0.78283   Biso      1.000     N          -0.23382199999999997          
         N16       1.0000    0.27664   0.92156   0.44950   Biso      1.000     N          -0.23470500000000002          
         N17       1.0000    0.68841   0.74511   0.21717   Biso      1.000     N          -0.233779           
         N18       1.0000    0.02175   0.41177   0.88383   Biso      1.000     N          -0.23308800000000002          
         N19       1.0000    0.31159   0.25489   0.78283   Biso      1.000     N          -0.233776           
         N20       1.0000    0.05669   0.31159   0.21717   Biso      1.000     N          -0.23370300000000002          
         N21       1.0000    0.39003   0.97825   0.88383   Biso      1.000     N          -0.23316199999999998          
         N22       1.0000    0.72336   0.64492   0.55050   Biso      1.000     N          -0.234717           
         N23       1.0000    0.25489   0.94331   0.21717   Biso      1.000     N          -0.23382600000000003          
         N24       1.0000    0.58823   0.60997   0.88383   Biso      1.000     N          -0.23321399999999998          
         N25       1.0000    0.31159   0.05669   0.78283   Biso      1.000     N          -0.23370300000000002          
         N26       1.0000    0.97825   0.58823   0.11617   Biso      1.000     N          -0.233084           
         N27       1.0000    0.58823   0.97825   0.88383   Biso      1.000     N          -0.23308800000000002          
         N28       1.0000    0.39003   0.41177   0.88383   Biso      1.000     N          -0.23321399999999998          
         N29       1.0000    0.25489   0.31159   0.21717   Biso      1.000     N          -0.233779           
         N30       1.0000    0.96238   0.29571   0.66667   Biso      1.000     N          0.009198  
         N31       1.0000    0.62905   0.62905   0.00000   Biso      1.000     N          0.007345999999999999          
         N32       1.0000    0.70429   0.66667   0.66667   Biso      1.000     N          0.009206  
         N33       1.0000    0.37095   0.00000   0.00000   Biso      1.000     N          0.007364  
         N34       1.0000    0.33333   0.03762   0.66667   Biso      1.000     N          0.009248000000000001          
         N35       1.0000    0.00000   0.37095   0.00000   Biso      1.000     N          0.007364  
         N36       1.0000    0.29571   0.96238   0.33333   Biso      1.000     N          0.009228  
         N37       1.0000    0.66667   0.70429   0.33333   Biso      1.000     N          0.009206  
         N38       1.0000    0.03762   0.33333   0.33333   Biso      1.000     N          0.009248000000000001          
         N39       1.0000    0.03762   0.70429   0.33333   Biso      1.000     N          0.009204  
         N40       1.0000    0.72336   0.07844   0.55050   Biso      1.000     N          -0.234704           
         N41       1.0000    0.29571   0.33333   0.33333   Biso      1.000     N          0.009206  
         N42       1.0000    0.70429   0.03762   0.66667   Biso      1.000     N          0.009228  
         N43       1.0000    0.37095   0.37095   0.00000   Biso      1.000     N          0.007345999999999999          
         N44       1.0000    0.33333   0.29571   0.66667   Biso      1.000     N          0.009175  
         N45       1.0000    0.00000   0.62905   0.00000   Biso      1.000     N          0.00733   
         N46       1.0000    0.96238   0.66667   0.66667   Biso      1.000     N          0.009218  
         N47       1.0000    0.62905   0.00000   0.00000   Biso      1.000     N          0.007364  
         N48       1.0000    0.92156   0.64492   0.55050   Biso      1.000     N          -0.23470500000000002          
         N49       1.0000    0.68841   0.94331   0.21717   Biso      1.000     N          -0.23370300000000002          
         N50       1.0000    0.02175   0.60997   0.88383   Biso      1.000     N          -0.233129           
         N51       1.0000    0.35508   0.27664   0.55050   Biso      1.000     N          -0.23468899999999998          
         N52       1.0000    0.05669   0.74511   0.21717   Biso      1.000     N          -0.233802           
         N53       1.0000    0.66667   0.96238   0.33333   Biso      1.000     N          0.009248000000000001          
         N54       1.0000    0.92156   0.27664   0.55050   Biso      1.000     N          -0.234675 