
##########################################################################
#               Crystallographic Information Format file
#               Produced by PyCifRW module
#
#  This is a CIF file.  CIF has been adopted by the International
#  Union of Crystallography as the standard for data archiving and
#  transmission.
#
#  For information on this file format, follow the CIF links at
#  http://www.iucr.org
##########################################################################

data_image0

_cell_length_a                          7.233
_cell_length_b                          21.7582
_cell_length_c                          21.7582
_cell_angle_alpha                       60.0478
_cell_angle_beta                        90
_cell_angle_gamma                       90
_symmetry_space_group_name_H-M          'P 1'
_symmetry_int_tables_number             1
loop_
  _symmetry_equiv_pos_as_xyz
         'x, y, z' 
loop_
  _atom_site_label
  _atom_site_occupancy
  _atom_site_fract_x
  _atom_site_fract_y
  _atom_site_fract_z
  _atom_site_thermal_displace_type
  _atom_site_B_iso_or_equiv
  _atom_site_type_symbol
  _atom_site_charge
         C1        1.0000    0.75000   0.97748   0.39386   Biso      1.000     C          0.63636   
         C2        1.0000    0.75000   0.87070   0.60596   Biso      1.000     C          0.6456970000000001  
         C3        1.0000    0.91420   0.23408   0.96910   Biso      1.000     C          -0.083992           
         C4        1.0000    0.58560   0.76793   0.70467   Biso      1.000     C          -0.087601           
         C5        1.0000    0.91390   0.96959   0.29583   Biso      1.000     C          -0.086995           
         C6        1.0000    0.91420   0.96910   0.23408   Biso      1.000     C          -0.091029           
         C7        1.0000    0.08560   0.23207   0.29533   Biso      1.000     C          -0.085482           
         C8        1.0000    0.41390   0.03041   0.70417   Biso      1.000     C          -0.084747           
         C9        1.0000    0.41420   0.03090   0.76592   Biso      1.000     C          -0.08552799999999999          
         C10       1.0000    0.91440   0.70467   0.76793   Biso      1.000     C          -0.087982           
         C11       1.0000    0.58610   0.29583   0.96959   Biso      1.000     C          -0.081821           
         C12       1.0000    0.58580   0.23408   0.96910   Biso      1.000     C          -0.083972           
         C13       1.0000    0.41440   0.29533   0.23207   Biso      1.000     C          -0.085908           
         C14       1.0000    0.08610   0.70417   0.03041   Biso      1.000     C          -0.086612           
         C15       1.0000    0.08580   0.76592   0.03090   Biso      1.000     C          -0.090192           
         C16       1.0000    0.41440   0.23207   0.29533   Biso      1.000     C          -0.08547300000000001          
         C17       1.0000    0.08610   0.03041   0.70417   Biso      1.000     C          -0.084747           
         C18       1.0000    0.08580   0.03090   0.76592   Biso      1.000     C          -0.085526           
         C19       1.0000    0.91440   0.76793   0.70467   Biso      1.000     C          -0.08759299999999999          
         C20       1.0000    0.58610   0.96959   0.29583   Biso      1.000     C          -0.086995           
         C21       1.0000    0.58580   0.96910   0.23408   Biso      1.000     C          -0.091029           
         C22       1.0000    0.08560   0.29533   0.23207   Biso      1.000     C          -0.085904           
         C23       1.0000    0.41390   0.70417   0.03041   Biso      1.000     C          -0.086612           
         C24       1.0000    0.41420   0.76592   0.03090   Biso      1.000     C          -0.090192           
         C25       1.0000    0.75000   0.79786   0.67230   Biso      1.000     C          -0.036131           
         C26       1.0000    0.58560   0.70467   0.76793   Biso      1.000     C          -0.087974           
         C27       1.0000    0.91390   0.29583   0.96959   Biso      1.000     C          -0.081803           
         C28       1.0000    0.75000   0.96867   0.20249   Biso      1.000     C          -0.027958999999999998         
         C29       1.0000    0.25000   0.86875   0.02925   Biso      1.000     C          0.62822   
         C30       1.0000    0.25000   0.79751   0.03133   Biso      1.000     C          -0.027725           
         C31       1.0000    0.25000   0.67245   0.02881   Biso      1.000     C          -0.039258999999999995         
         C32       1.0000    0.25000   0.60614   0.02252   Biso      1.000     C          0.641948  
         C33       1.0000    0.25000   0.32770   0.20214   Biso      1.000     C          -0.030683999999999996         
         C34       1.0000    0.25000   0.39404   0.12930   Biso      1.000     C          0.640039  
         C35       1.0000    0.75000   0.13125   0.97075   Biso      1.000     C          0.639992  
         C36       1.0000    0.75000   0.97119   0.32755   Biso      1.000     C          -0.037362           
         C37       1.0000    0.75000   0.32755   0.97119   Biso      1.000     C          -0.037439           
         C38       1.0000    0.75000   0.20249   0.96867   Biso      1.000     C          -0.025963           
         C39       1.0000    0.75000   0.67230   0.79786   Biso      1.000     C          -0.026944           
         C40       1.0000    0.75000   0.60596   0.87070   Biso      1.000     C          0.631884  
         C41       1.0000    0.25000   0.02925   0.86875   Biso      1.000     C          0.641357  
         C42       1.0000    0.25000   0.03133   0.79751   Biso      1.000     C          -0.032092           
         C43       1.0000    0.25000   0.02881   0.67245   Biso      1.000     C          -0.031318           
         C44       1.0000    0.25000   0.02252   0.60614   Biso      1.000     C          0.636181  
         C45       1.0000    0.25000   0.20214   0.32770   Biso      1.000     C          -0.030525999999999998         
         C46       1.0000    0.25000   0.12930   0.39404   Biso      1.000     C          0.644518  
         C47       1.0000    0.75000   0.97075   0.13125   Biso      1.000     C          0.627468  
         C48       1.0000    0.75000   0.39386   0.97748   Biso      1.000     C          0.6482760000000001  
         H1        1.0000    0.75017   0.45650   0.09481   Biso      1.000     H          0.383945  
         H2        1.0000    0.24997   0.90520   0.54350   Biso      1.000     H          0.387463  
         H3        1.0000    0.75003   0.09481   0.45651   Biso      1.000     H          0.384381  
         H4        1.0000    0.24999   0.45304   0.95201   Biso      1.000     H          0.382675  
         H5        1.0000    0.25000   0.07641   0.00248   Biso      1.000     H          0.382333  
         H6        1.0000    0.74995   0.99789   0.92356   Biso      1.000     H          0.384142  
         H7        1.0000    0.05024   0.32256   0.96868   Biso      1.000     H          0.096368  
         H8        1.0000    0.44921   0.79512   0.67950   Biso      1.000     H          0.09918300000000001           
         H9        1.0000    0.05024   0.96868   0.32256   Biso      1.000     H          0.105746  
         H10       1.0000    0.05082   0.96904   0.20798   Biso      1.000     H          0.10851500000000001           
         H11       1.0000    0.94921   0.20488   0.32050   Biso      1.000     H          0.10117000000000001           
         H12       1.0000    0.55024   0.03132   0.67744   Biso      1.000     H          0.10746700000000001           
         H13       1.0000    0.55082   0.03096   0.79202   Biso      1.000     H          0.09790399999999999           
         H14       1.0000    0.05079   0.67950   0.79512   Biso      1.000     H          0.11111800000000001           
         H15       1.0000    0.44976   0.32256   0.96868   Biso      1.000     H          0.09637000000000001           
         H16       1.0000    0.44918   0.20798   0.96904   Biso      1.000     H          0.099785  
         H17       1.0000    0.94976   0.67744   0.03132   Biso      1.000     H          0.105235  
         H18       1.0000    0.55079   0.32050   0.20488   Biso      1.000     H          0.100689  
         H19       1.0000    0.55079   0.20488   0.32050   Biso      1.000     H          0.101171  
         H20       1.0000    0.94976   0.03132   0.67744   Biso      1.000     H          0.10746700000000001           
         H21       1.0000    0.94918   0.03096   0.79202   Biso      1.000     H          0.09791   
         H22       1.0000    0.05079   0.79512   0.67950   Biso      1.000     H          0.09917999999999999           
         H23       1.0000    0.44976   0.96868   0.32256   Biso      1.000     H          0.105746  
         H24       1.0000    0.44918   0.96904   0.20798   Biso      1.000     H          0.10851500000000001           
         H25       1.0000    0.94921   0.32050   0.20488   Biso      1.000     H          0.100676  
         H26       1.0000    0.55024   0.67744   0.03132   Biso      1.000     H          0.105235  
         H27       1.0000    0.55082   0.79202   0.03096   Biso      1.000     H          0.108615  
         H28       1.0000    0.44921   0.67950   0.79512   Biso      1.000     H          0.11111700000000001           
         H29       1.0000    0.94918   0.79202   0.03096   Biso      1.000     H          0.108615  
         H30       1.0000    0.05082   0.20798   0.96904   Biso      1.000     H          0.099787  
         In1       1.0000    0.00000   0.00000   0.00000   Biso      1.000     In          1.599987  
         In2       1.0000    0.50000   0.00000   0.50000   Biso      1.000     In          1.541532  
         In3       1.0000    0.50000   0.50000   0.00000   Biso      1.000     In          1.540846  
         In4       1.0000    0.00000   0.50000   0.00000   Biso      1.000     In          1.540661  
         In5       1.0000    0.00000   0.00000   0.50000   Biso      1.000     In          1.541463  
         In6       1.0000    0.50000   0.00000   0.00000   Biso      1.000     In          1.599935  
         O1        1.0000    0.40435   0.10286   0.41928   Biso      1.000     O          -0.59019  
         O2        1.0000    0.90435   0.89714   0.58072   Biso      1.000     O          -0.592109           
         O3        1.0000    0.90194   0.97733   0.42005   Biso      1.000     O          -0.5912649999999999           
         O4        1.0000    0.90353   0.97182   0.10416   Biso      1.000     O          -0.585874           
         O5        1.0000    0.25000   0.02416   0.02416   Biso      1.000     O          -0.863928           
         O6        1.0000    0.75000   0.97584   0.97584   Biso      1.000     O          -0.8622569999999999           
         O7        1.0000    0.25000   0.49883   0.95139   Biso      1.000     O          -0.8441360000000001           
         O8        1.0000    0.75000   0.50117   0.04861   Biso      1.000     O          -0.84215  
         O9        1.0000    0.25000   0.95139   0.49883   Biso      1.000     O          -0.84583  
         O10       1.0000    0.75000   0.04861   0.50117   Biso      1.000     O          -0.847389           
         O11       1.0000    0.90353   0.10416   0.97182   Biso      1.000     O          -0.611847           
         O12       1.0000    0.90194   0.42005   0.97733   Biso      1.000     O          -0.603824           
         O13       1.0000    0.90435   0.58072   0.89714   Biso      1.000     O          -0.576176           
         O14       1.0000    0.40194   0.02267   0.57995   Biso      1.000     O          -0.590054           
         O15       1.0000    0.40353   0.89584   0.02818   Biso      1.000     O          -0.586034           
         O16       1.0000    0.40435   0.41928   0.10286   Biso      1.000     O          -0.602671           
         O17       1.0000    0.59647   0.97182   0.10416   Biso      1.000     O          -0.5858720000000001           
         O18       1.0000    0.59806   0.97733   0.42005   Biso      1.000     O          -0.591268           
         O19       1.0000    0.59565   0.89714   0.58072   Biso      1.000     O          -0.592096           
         O20       1.0000    0.09647   0.02818   0.89584   Biso      1.000     O          -0.614256           
         O21       1.0000    0.09806   0.02267   0.57995   Biso      1.000     O          -0.590051           
         O22       1.0000    0.09565   0.10286   0.41928   Biso      1.000     O          -0.590201           
         O23       1.0000    0.09647   0.89584   0.02818   Biso      1.000     O          -0.586034           
         O24       1.0000    0.09806   0.57995   0.02267   Biso      1.000     O          -0.580697           
         O25       1.0000    0.09565   0.41928   0.10286   Biso      1.000     O          -0.602735           
         O26       1.0000    0.59647   0.10416   0.97182   Biso      1.000     O          -0.6118439999999999           
         O27       1.0000    0.59806   0.42005   0.97733   Biso      1.000     O          -0.603834           
         O28       1.0000    0.59565   0.58072   0.89714   Biso      1.000     O          -0.576186           
         O29       1.0000    0.40194   0.57995   0.02267   Biso      1.000     O          -0.580695           
         O30       1.0000    0.40353   0.02818   0.89584   Biso      1.000     O          -0.614274 