
##########################################################################
#               Crystallographic Information Format file
#               Produced by PyCifRW module
#
#  This is a CIF file.  CIF has been adopted by the International
#  Union of Crystallography as the standard for data archiving and
#  transmission.
#
#  For information on this file format, follow the CIF links at
#  http://www.iucr.org
##########################################################################

data_image0

_cell_length_a                          10.063
_cell_length_b                          13.0296
_cell_length_c                          16.8373
_cell_angle_alpha                       90
_cell_angle_beta                        90
_cell_angle_gamma                       109.821
_symmetry_space_group_name_H-M          'P 1'
_symmetry_int_tables_number             1
loop_
  _symmetry_equiv_pos_as_xyz
         'x, y, z' 
loop_
  _atom_site_label
  _atom_site_occupancy
  _atom_site_fract_x
  _atom_site_fract_y
  _atom_site_fract_z
  _atom_site_thermal_displace_type
  _atom_site_B_iso_or_equiv
  _atom_site_type_symbol
  _atom_site_charge
         Ba1       1.0000    0.52482   0.71135   0.70886   Biso      1.000     Ba          1.598697  
         Ba2       1.0000    0.02482   0.21135   0.79114   Biso      1.000     Ba          1.598698  
         Ba3       1.0000    0.47518   0.28865   0.29114   Biso      1.000     Ba          1.598697  
         Ba4       1.0000    0.97518   0.78865   0.20886   Biso      1.000     Ba          1.598698  
         C1        1.0000    0.14160   0.91350   0.56070   Biso      1.000     C          -0.089339           
         C2        1.0000    0.67070   0.90640   0.07230   Biso      1.000     C          -0.08916  
         C3        1.0000    0.81480   0.99480   0.39260   Biso      1.000     C          -0.092303           
         C4        1.0000    0.09330   0.52260   0.34170   Biso      1.000     C          -0.14013599999999998          
         C5        1.0000    0.72360   0.60690   0.92760   Biso      1.000     C          -0.013465999999999999         
         C6        1.0000    0.35840   0.58650   0.06070   Biso      1.000     C          -0.089339           
         C7        1.0000    0.72720   0.79230   0.37810   Biso      1.000     C          0.594321  
         C8        1.0000    0.65200   0.97540   0.84600   Biso      1.000     C          0.6275970000000001  
         C9        1.0000    0.36770   0.57890   0.97880   Biso      1.000     C          -0.102246           
         C10       1.0000    0.64160   0.41350   0.93930   Biso      1.000     C          -0.08934  
         C11       1.0000    0.78560   0.88550   0.50880   Biso      1.000     C          -0.146562           
         C12       1.0000    0.32930   0.09360   0.92770   Biso      1.000     C          -0.08916  
         C13       1.0000    0.22720   0.29230   0.12190   Biso      1.000     C          0.594321  
         C14       1.0000    0.69940   0.98390   0.13250   Biso      1.000     C          -0.011594           
         C15       1.0000    0.86770   0.07890   0.52120   Biso      1.000     C          -0.102251           
         C16       1.0000    0.31480   0.49480   0.10740   Biso      1.000     C          -0.092295           
         C17       1.0000    0.77640   0.89310   0.42760   Biso      1.000     C          -0.013455000000000002         
         C18       1.0000    0.13230   0.92110   0.47880   Biso      1.000     C          -0.102246           
         C19       1.0000    0.43080   0.90150   0.06740   Biso      1.000     C          -0.113017           
         C20       1.0000    0.15200   0.47540   0.65400   Biso      1.000     C          0.6275970000000001  
         C21       1.0000    0.28560   0.38550   0.99120   Biso      1.000     C          -0.146562           
         C22       1.0000    0.06920   0.59850   0.56740   Biso      1.000     C          -0.113017           
         C23       1.0000    0.19940   0.48390   0.36750   Biso      1.000     C          -0.011597           
         C24       1.0000    0.93080   0.40150   0.43260   Biso      1.000     C          -0.113017           
         C25       1.0000    0.18520   0.00520   0.60740   Biso      1.000     C          -0.092295           
         C26       1.0000    0.34800   0.02460   0.15400   Biso      1.000     C          0.6275970000000001  
         C27       1.0000    0.21440   0.11450   0.49120   Biso      1.000     C          -0.146562           
         C28       1.0000    0.34640   0.46630   0.85630   Biso      1.000     C          0.626028  
         C29       1.0000    0.03830   0.36850   0.46080   Biso      1.000     C          -0.075709           
         C30       1.0000    0.84460   0.02800   0.16800   Biso      1.000     C          0.6009800000000001  
         C31       1.0000    0.65540   0.47200   0.66800   Biso      1.000     C          0.6009800000000001  
         C32       1.0000    0.84640   0.96630   0.64370   Biso      1.000     C          0.626028  
         C33       1.0000    0.84800   0.52460   0.34600   Biso      1.000     C          0.6275970000000001  
         C34       1.0000    0.63230   0.42110   0.02120   Biso      1.000     C          -0.102246           
         C35       1.0000    0.17070   0.40640   0.42770   Biso      1.000     C          -0.089157           
         C36       1.0000    0.27640   0.39310   0.07240   Biso      1.000     C          -0.013456000000000001         
         C37       1.0000    0.27280   0.20770   0.62190   Biso      1.000     C          0.594321  
         C38       1.0000    0.15360   0.03370   0.35630   Biso      1.000     C          0.626028  
         C39       1.0000    0.90670   0.47740   0.65830   Biso      1.000     C          -0.14013599999999998          
         C40       1.0000    0.04030   0.51910   0.62620   Biso      1.000     C          -0.03442  
         C41       1.0000    0.65360   0.53370   0.14370   Biso      1.000     C          0.626028  
         C42       1.0000    0.85840   0.08650   0.43930   Biso      1.000     C          -0.08932799999999999          
         C43       1.0000    0.80060   0.51610   0.63250   Biso      1.000     C          -0.011597           
         C44       1.0000    0.82930   0.59360   0.57230   Biso      1.000     C          -0.089158           
         C45       1.0000    0.30060   0.01610   0.86750   Biso      1.000     C          -0.011594           
         C46       1.0000    0.45970   0.98090   0.12620   Biso      1.000     C          -0.034421           
         C47       1.0000    0.83140   0.97760   0.55650   Biso      1.000     C          -0.040202           
         C48       1.0000    0.77280   0.70770   0.87810   Biso      1.000     C          0.594322  
         C49       1.0000    0.16860   0.02240   0.44350   Biso      1.000     C          -0.040202           
         C50       1.0000    0.53830   0.86850   0.03920   Biso      1.000     C          -0.075708           
         C51       1.0000    0.96170   0.63150   0.53920   Biso      1.000     C          -0.075708           
         C52       1.0000    0.95970   0.48090   0.37380   Biso      1.000     C          -0.03442  
         C53       1.0000    0.40670   0.97740   0.84170   Biso      1.000     C          -0.14013599999999998          
         C54       1.0000    0.71440   0.61450   0.00880   Biso      1.000     C          -0.146553           
         C55       1.0000    0.54030   0.01910   0.87380   Biso      1.000     C          -0.03442  
         C56       1.0000    0.68520   0.50520   0.89260   Biso      1.000     C          -0.092292           
         C57       1.0000    0.59330   0.02260   0.15830   Biso      1.000     C          -0.14013499999999998          
         C58       1.0000    0.22360   0.10690   0.57240   Biso      1.000     C          -0.013456000000000001         
         C59       1.0000    0.15540   0.97200   0.83200   Biso      1.000     C          0.6009800000000001  
         C60       1.0000    0.46170   0.13150   0.96080   Biso      1.000     C          -0.075711           
         C61       1.0000    0.34460   0.52800   0.33200   Biso      1.000     C          0.6009800000000001  
         C62       1.0000    0.66860   0.52240   0.05650   Biso      1.000     C          -0.040202999999999996         
         C63       1.0000    0.33140   0.47760   0.94350   Biso      1.000     C          -0.040202           
         C64       1.0000    0.56920   0.09850   0.93260   Biso      1.000     C          -0.113015           
         Cd1       1.0000    0.13015   0.09996   0.20105   Biso      1.000     Cd          0.9682870000000001  
         Cd2       1.0000    0.36985   0.40004   0.70105   Biso      1.000     Cd          0.9682870000000001  
         Cd3       1.0000    0.86985   0.90004   0.79895   Biso      1.000     Cd          0.9682879999999999  
         Cd4       1.0000    0.63015   0.59996   0.29895   Biso      1.000     Cd          0.9682870000000001  
         H1        1.0000    0.97920   0.68040   0.49700   Biso      1.000     H          0.10720999999999999           
         H2        1.0000    0.38200   0.65490   0.08430   Biso      1.000     H          0.105538  
         H3        1.0000    0.61800   0.34510   0.91570   Biso      1.000     H          0.105538  
         H4        1.0000    0.33980   0.87100   0.04730   Biso      1.000     H          0.113267  
         H5        1.0000    0.74090   0.88050   0.05460   Biso      1.000     H          0.118068  
         H6        1.0000    0.73960   0.68310   0.03220   Biso      1.000     H          0.11091600000000001           
         H7        1.0000    0.68880   0.49890   0.83770   Biso      1.000     H          0.11593900000000001           
         H8        1.0000    0.16020   0.62900   0.54730   Biso      1.000     H          0.113267  
         H9        1.0000    0.11270   0.57660   0.30290   Biso      1.000     H          0.11022799999999999           
         H10       1.0000    0.23960   0.18310   0.46780   Biso      1.000     H          0.110917  
         H11       1.0000    0.10180   0.85830   0.44790   Biso      1.000     H          0.110366  
         H12       1.0000    0.89820   0.14170   0.55210   Biso      1.000     H          0.110366  
         H13       1.0000    0.75910   0.61950   0.55460   Biso      1.000     H          0.118068  
         H14       1.0000    0.39820   0.64170   0.94790   Biso      1.000     H          0.110366  
         H15       1.0000    0.88730   0.42340   0.69710   Biso      1.000     H          0.11022699999999999           
         H16       1.0000    0.26040   0.31690   0.96780   Biso      1.000     H          0.110917  
         H17       1.0000    0.76040   0.81690   0.53220   Biso      1.000     H          0.110917  
         H18       1.0000    0.38730   0.92340   0.80290   Biso      1.000     H          0.11022799999999999           
         H19       1.0000    0.47920   0.18040   0.00300   Biso      1.000     H          0.10721099999999999           
         H20       1.0000    0.18880   0.99890   0.66230   Biso      1.000     H          0.11593900000000001           
         H21       1.0000    0.60180   0.35830   0.05210   Biso      1.000     H          0.110366  
         H22       1.0000    0.83980   0.37100   0.45270   Biso      1.000     H          0.113267  
         H23       1.0000    0.88200   0.15490   0.41570   Biso      1.000     H          0.10553699999999999           
         H24       1.0000    0.81120   0.00110   0.33770   Biso      1.000     H          0.11594000000000002           
         H25       1.0000    0.61270   0.07660   0.19710   Biso      1.000     H          0.11022699999999999           
         H26       1.0000    0.66020   0.12900   0.95270   Biso      1.000     H          0.113267  
         H27       1.0000    0.02080   0.31960   0.50300   Biso      1.000     H          0.10721099999999999           
         H28       1.0000    0.52080   0.81960   0.99700   Biso      1.000     H          0.10721099999999999           
         H29       1.0000    0.25910   0.11950   0.94540   Biso      1.000     H          0.118068  
         H30       1.0000    0.11800   0.84510   0.58430   Biso      1.000     H          0.105538  
         H31       1.0000    0.31120   0.50110   0.16230   Biso      1.000     H          0.11593900000000001           
         H32       1.0000    0.24090   0.38050   0.44540   Biso      1.000     H          0.118068  
         O1        1.0000    0.72050   0.47070   0.35760   Biso      1.000     O          -0.625143           
         O2        1.0000    0.38280   0.61470   0.29380   Biso      1.000     O          -0.55638  
         O3        1.0000    0.59770   0.45140   0.18460   Biso      1.000     O          -0.64415  
         O4        1.0000    0.11720   0.88530   0.79380   Biso      1.000     O          -0.55638  
         O5        1.0000    0.33910   0.29640   0.58740   Biso      1.000     O          -0.551371           
         O6        1.0000    0.38560   0.11610   0.18780   Biso      1.000     O          -0.674866           
         O7        1.0000    0.27950   0.52930   0.64240   Biso      1.000     O          -0.625143           
         O8        1.0000    0.90230   0.04860   0.68460   Biso      1.000     O          -0.64415  
         O9        1.0000    0.19830   0.12900   0.32810   Biso      1.000     O          -0.625572           
         O10       1.0000    0.22050   0.97070   0.14240   Biso      1.000     O          -0.625143           
         O11       1.0000    0.77950   0.02930   0.85760   Biso      1.000     O          -0.625143           
         O12       1.0000    0.74770   0.70320   0.80590   Biso      1.000     O          -0.6276970000000001           
         O13       1.0000    0.07470   0.02680   0.84330   Biso      1.000     O          -0.654127           
         O14       1.0000    0.83910   0.79640   0.91260   Biso      1.000     O          -0.551371           
         O15       1.0000    0.66090   0.70360   0.41260   Biso      1.000     O          -0.551371           
         O16       1.0000    0.75230   0.79680   0.30590   Biso      1.000     O          -0.6276970000000001           
         O17       1.0000    0.24770   0.20320   0.69410   Biso      1.000     O          -0.6276970000000001           
         O18       1.0000    0.80170   0.87100   0.67190   Biso      1.000     O          -0.625572           
         O19       1.0000    0.11440   0.38390   0.68780   Biso      1.000     O          -0.674866           
         O20       1.0000    0.61720   0.38530   0.70620   Biso      1.000     O          -0.55638  
         O21       1.0000    0.92530   0.97320   0.15670   Biso      1.000     O          -0.654127           
         O22       1.0000    0.16090   0.20360   0.08740   Biso      1.000     O          -0.551371           
         O23       1.0000    0.61440   0.88390   0.81220   Biso      1.000     O          -0.674866           
         O24       1.0000    0.88560   0.61610   0.31220   Biso      1.000     O          -0.674866           
         O25       1.0000    0.88280   0.11470   0.20620   Biso      1.000     O          -0.55638  
         O26       1.0000    0.30170   0.37100   0.82810   Biso      1.000     O          -0.625572           
         O27       1.0000    0.42530   0.47320   0.34330   Biso      1.000     O          -0.654127           
         O28       1.0000    0.09770   0.95140   0.31540   Biso      1.000     O          -0.64415  
         O29       1.0000    0.25230   0.29680   0.19410   Biso      1.000     O          -0.6276970000000001           
         O30       1.0000    0.57470   0.52680   0.65670   Biso      1.000     O          -0.654127           
         O31       1.0000    0.69830   0.62900   0.17190   Biso      1.000     O          -0.625572           
         O32       1.0000    0.40230   0.54860   0.81540   Biso      1.000     O          -0.64415 