
##########################################################################
#               Crystallographic Information Format file
#               Produced by PyCifRW module
#
#  This is a CIF file.  CIF has been adopted by the International
#  Union of Crystallography as the standard for data archiving and
#  transmission.
#
#  For information on this file format, follow the CIF links at
#  http://www.iucr.org
##########################################################################

data_image0

_cell_length_a                          7.669
_cell_length_b                          15.5888
_cell_length_c                          16.7319
_cell_angle_alpha                       69.948
_cell_angle_beta                        80.155
_cell_angle_gamma                       81.116
_symmetry_space_group_name_H-M          'P 1'
_symmetry_int_tables_number             1
loop_
  _symmetry_equiv_pos_as_xyz
         'x, y, z' 
loop_
  _atom_site_label
  _atom_site_occupancy
  _atom_site_fract_x
  _atom_site_fract_y
  _atom_site_fract_z
  _atom_site_thermal_displace_type
  _atom_site_B_iso_or_equiv
  _atom_site_type_symbol
  _atom_site_charge
         C1        1.0000    0.33860   0.23320   0.55510   Biso      1.000     C          0.092815  
         C2        1.0000    0.69490   0.44480   0.93780   Biso      1.000     C          -0.201396           
         C3        1.0000    0.86780   0.43620   0.95520   Biso      1.000     C          0.163207  
         C4        1.0000    0.53150   0.33060   0.17210   Biso      1.000     C          -0.096821           
         C5        1.0000    0.36760   0.62440   0.07840   Biso      1.000     C          0.09168899999999999           
         C6        1.0000    0.59190   0.25530   0.61440   Biso      1.000     C          -0.130873           
         C7        1.0000    0.20350   0.01460   0.41310   Biso      1.000     C          0.16677   
         C8        1.0000    0.28360   0.25430   0.16600   Biso      1.000     C          0.039397  
         C9        1.0000    0.16430   0.21330   0.56620   Biso      1.000     C          -0.170235           
         C10       1.0000    0.96810   0.82320   0.83520   Biso      1.000     C          -0.060258000000000006         
         C11       1.0000    0.18200   0.28880   0.23110   Biso      1.000     C          0.08814   
         C12       1.0000    0.28990   0.98640   0.28150   Biso      1.000     C          0.10248499999999999           
         C13       1.0000    0.46040   0.27700   0.13960   Biso      1.000     C          -0.140316           
         C14       1.0000    0.57060   0.63630   0.76440   Biso      1.000     C          -0.08785  
         C15       1.0000    0.93430   0.20990   0.22980   Biso      1.000     C          -0.111177           
         C16       1.0000    0.25930   0.34320   0.26370   Biso      1.000     C          -0.158442           
         C17       1.0000    0.31760   0.16390   0.06510   Biso      1.000     C          0.608781  
         C18       1.0000    0.99480   0.73530   0.73900   Biso      1.000     C          -0.17139000000000001          
         C19       1.0000    0.63240   0.37560   0.92160   Biso      1.000     C          0.091698  
         C20       1.0000    0.97250   0.84800   0.19750   Biso      1.000     C          0.610855  
         C21       1.0000    0.31540   0.71750   0.46510   Biso      1.000     C          -0.095376           
         C22       1.0000    0.92040   0.98660   0.51000   Biso      1.000     C          -0.132198           
         C23       1.0000    0.68240   0.83610   0.93490   Biso      1.000     C          0.608781  
         C24       1.0000    0.31400   0.20560   0.71010   Biso      1.000     C          -0.091674           
         C25       1.0000    0.53960   0.72300   0.86040   Biso      1.000     C          -0.140329           
         C26       1.0000    0.00520   0.26470   0.26100   Biso      1.000     C          -0.17138  
         C27       1.0000    0.44180   0.25620   0.47310   Biso      1.000     C          -0.167954           
         C28       1.0000    0.93230   0.80760   0.35530   Biso      1.000     C          -0.111224           
         C29       1.0000    0.50750   0.96270   0.66870   Biso      1.000     C          0.09300399999999999           
         C30       1.0000    0.71010   0.01360   0.71850   Biso      1.000     C          0.102486  
         C31       1.0000    0.71640   0.74570   0.83400   Biso      1.000     C          0.039398  
         C32       1.0000    0.85820   0.81570   0.28160   Biso      1.000     C          -0.06193200000000001          
         C33       1.0000    0.74070   0.65680   0.73630   Biso      1.000     C          -0.15842799999999999          
         C34       1.0000    0.58420   0.76690   0.37260   Biso      1.000     C          0.053877  
         C35       1.0000    0.83570   0.78670   0.43380   Biso      1.000     C          -0.170219           
         C36       1.0000    0.20330   0.19880   0.13350   Biso      1.000     C          -0.07739299999999999          
         C37       1.0000    0.83680   0.01060   0.65160   Biso      1.000     C          -0.18623  
         C38       1.0000    0.37410   0.04300   0.40100   Biso      1.000     C          -0.209234           
         C39       1.0000    0.13220   0.56380   0.04480   Biso      1.000     C          0.163208  
         C40       1.0000    0.39240   0.71860   0.53660   Biso      1.000     C          -0.095746           
         C41       1.0000    0.46850   0.66940   0.82790   Biso      1.000     C          -0.096807           
         C42       1.0000    0.40810   0.74470   0.38560   Biso      1.000     C          -0.130859           
         C43       1.0000    0.90380   0.29060   0.93080   Biso      1.000     C          0.10343800000000002           
         C44       1.0000    0.94280   0.12010   0.13150   Biso      1.000     C          0.597895  
         C45       1.0000    0.14180   0.18430   0.71840   Biso      1.000     C          -0.061935000000000004         
         C46       1.0000    0.16320   0.98940   0.34840   Biso      1.000     C          -0.186221           
         C47       1.0000    0.03190   0.17680   0.16480   Biso      1.000     C          -0.060254999999999996         
         C48       1.0000    0.07020   0.49420   0.02040   Biso      1.000     C          -0.128393           
         C49       1.0000    0.02750   0.15200   0.80250   Biso      1.000     C          0.610855  
         C50       1.0000    0.97430   0.35700   0.94850   Biso      1.000     C          -0.176464           
         C51       1.0000    0.02570   0.64300   0.05150   Biso      1.000     C          -0.176468           
         C52       1.0000    0.59650   0.79620   0.21610   Biso      1.000     C          0.60041   
         C53       1.0000    0.68460   0.28250   0.53490   Biso      1.000     C          -0.095364           
         C54       1.0000    0.42940   0.36370   0.23560   Biso      1.000     C          -0.087835           
         C55       1.0000    0.81800   0.71120   0.76890   Biso      1.000     C          0.088139  
         C56       1.0000    0.30510   0.55520   0.06220   Biso      1.000     C          -0.20138599999999998          
         C57       1.0000    0.07960   0.01340   0.49000   Biso      1.000     C          -0.132138           
         C58       1.0000    0.55820   0.74380   0.52690   Biso      1.000     C          -0.167943           
         C59       1.0000    0.05720   0.87990   0.86850   Biso      1.000     C          0.597895  
         C60       1.0000    0.79650   0.98540   0.58690   Biso      1.000     C          0.166783  
         C61       1.0000    0.09620   0.70940   0.06920   Biso      1.000     C          0.103442  
         C62       1.0000    0.41580   0.23310   0.62740   Biso      1.000     C          0.05388   
         C63       1.0000    0.60760   0.28140   0.46340   Biso      1.000     C          -0.095735           
         C64       1.0000    0.66140   0.76680   0.44490   Biso      1.000     C          0.092815  
         C65       1.0000    0.06570   0.79010   0.77020   Biso      1.000     C          -0.11116600000000001          
         C66       1.0000    0.68600   0.79440   0.28990   Biso      1.000     C          -0.091674           
         C67       1.0000    0.92980   0.50580   0.97960   Biso      1.000     C          -0.128353           
         C68       1.0000    0.79670   0.80120   0.86650   Biso      1.000     C          -0.07739  
         C69       1.0000    0.62590   0.95700   0.59900   Biso      1.000     C          -0.209227           
         C70       1.0000    0.49250   0.03730   0.33130   Biso      1.000     C          0.093011  
         C71       1.0000    0.06770   0.19240   0.64470   Biso      1.000     C          -0.111204           
         C72       1.0000    0.40350   0.20380   0.78390   Biso      1.000     C          0.60041   
         Cd1       1.0000    0.36779   0.99261   0.85753   Biso      1.000     Cd          1.0015370000000001  
         Cd2       1.0000    0.61510   0.17655   0.91263   Biso      1.000     Cd          0.9840399999999999  
         Cd3       1.0000    0.63221   0.00739   0.14247   Biso      1.000     Cd          1.0015370000000001  
         Cd4       1.0000    0.00000   0.00000   0.00000   Biso      1.000     Cd          1.089605  
         Cd5       1.0000    0.38490   0.82345   0.08737   Biso      1.000     Cd          0.9840399999999999  
         H1        1.0000    0.59330   0.93430   0.55960   Biso      1.000     H          0.12231099999999999           
         H2        1.0000    0.35400   0.74880   0.33850   Biso      1.000     H          0.118693  
         H3        1.0000    0.05120   0.81690   0.35000   Biso      1.000     H          0.10943800000000001           
         H4        1.0000    0.39360   0.94620   0.67380   Biso      1.000     H          0.090794  
         H5        1.0000    0.04960   0.97430   0.35010   Biso      1.000     H          0.123798  
         H6        1.0000    0.88660   0.78570   0.48070   Biso      1.000     H          0.11285099999999999           
         H7        1.0000    0.46950   0.74560   0.90150   Biso      1.000     H          0.107549  
         H8        1.0000    0.74050   0.03360   0.76010   Biso      1.000     H          0.093961  
         H9        1.0000    0.02250   0.76150   0.07320   Biso      1.000     H          0.103753  
         H10       1.0000    0.60640   0.05380   0.32620   Biso      1.000     H          0.090793  
         H11       1.0000    0.64760   0.34540   0.15240   Biso      1.000     H          0.109378  
         H12       1.0000    0.19280   0.36590   0.30540   Biso      1.000     H          0.11759100000000001           
         H13       1.0000    0.90630   0.65080   0.04390   Biso      1.000     H          0.131536  
         H14       1.0000    0.11340   0.21430   0.51930   Biso      1.000     H          0.112852  
         H15       1.0000    0.53050   0.25440   0.09850   Biso      1.000     H          0.107548  
         H16       1.0000    0.51440   0.38280   0.91190   Biso      1.000     H          0.10020599999999999           
         H17       1.0000    0.67710   0.00540   0.97910   Biso      1.000     H          0.42063100000000003           
         H18       1.0000    0.88130   0.96600   0.47070   Biso      1.000     H          0.107824  
         H19       1.0000    0.62050   0.49810   0.93710   Biso      1.000     H          0.11976099999999999           
         H20       1.0000    0.06310   0.71300   0.69730   Biso      1.000     H          0.113818  
         H21       1.0000    0.39560   0.25390   0.42600   Biso      1.000     H          0.107885  
         H22       1.0000    0.32290   0.99460   0.02090   Biso      1.000     H          0.42063100000000003           
         H23       1.0000    0.86580   0.56360   0.96550   Biso      1.000     H          0.116673  
         H24       1.0000    0.64600   0.25120   0.66150   Biso      1.000     H          0.11869400000000001           
         H25       1.0000    0.25950   0.96640   0.23990   Biso      1.000     H          0.093961  
         H26       1.0000    0.60440   0.74610   0.57400   Biso      1.000     H          0.107884  
         H27       1.0000    0.47840   0.39980   0.25840   Biso      1.000     H          0.110776  
         H28       1.0000    0.79710   0.30170   0.52700   Biso      1.000     H          0.11101199999999999           
         H29       1.0000    0.20290   0.69830   0.47300   Biso      1.000     H          0.11101300000000001           
         H30       1.0000    0.37950   0.50190   0.06290   Biso      1.000     H          0.11975999999999999           
         H31       1.0000    0.80720   0.63410   0.69460   Biso      1.000     H          0.11759000000000001           
         H32       1.0000    0.11870   0.03400   0.52930   Biso      1.000     H          0.10782   
         H33       1.0000    0.18040   0.80620   0.74840   Biso      1.000     H          0.116504  
         H34       1.0000    0.67260   0.29830   0.40910   Biso      1.000     H          0.09918099999999999           
         H35       1.0000    0.32740   0.70170   0.59090   Biso      1.000     H          0.099182  
         H36       1.0000    0.97750   0.23850   0.92680   Biso      1.000     H          0.103754  
         H37       1.0000    0.81960   0.19380   0.25160   Biso      1.000     H          0.116505  
         H38       1.0000    0.95040   0.02570   0.64990   Biso      1.000     H          0.123798  
         H39       1.0000    0.13420   0.43640   0.03450   Biso      1.000     H          0.116676  
         H40       1.0000    0.40670   0.06570   0.44040   Biso      1.000     H          0.12231099999999999           
         H41       1.0000    0.48560   0.61720   0.08810   Biso      1.000     H          0.100207  
         H42       1.0000    0.35240   0.65460   0.84760   Biso      1.000     H          0.109377  
         H43       1.0000    0.52160   0.60020   0.74160   Biso      1.000     H          0.110776  
         H44       1.0000    0.09370   0.34920   0.95610   Biso      1.000     H          0.131536  
         H45       1.0000    0.93690   0.28700   0.30270   Biso      1.000     H          0.113817  
         H46       1.0000    0.94880   0.18310   0.65000   Biso      1.000     H          0.10943699999999999           
         N1        1.0000    0.54690   0.99020   0.72890   Biso      1.000     N          -0.238894           
         N2        1.0000    0.73240   0.29820   0.91910   Biso      1.000     N          -0.238717           
         N3        1.0000    0.45310   0.00980   0.27110   Biso      1.000     N          -0.23889499999999997          
         N4        1.0000    0.26760   0.70180   0.08090   Biso      1.000     N          -0.23871599999999998          
         O1        1.0000    0.62890   0.92270   0.91070   Biso      1.000     O          -0.6101489999999999           
         O2        1.0000    0.13450   0.82420   0.19420   Biso      1.000     O          -0.556143           
         O3        1.0000    0.36520   0.21880   0.99550   Biso      1.000     O          -0.536086           
         O4        1.0000    0.47730   0.12790   0.82920   Biso      1.000     O          -0.57012  
         O5        1.0000    0.19620   0.91330   0.82310   Biso      1.000     O          -0.584361           
         O6        1.0000    0.10380   0.10010   0.86620   Biso      1.000     O          -0.608073           
         O7        1.0000    0.86550   0.17580   0.80580   Biso      1.000     O          -0.556143           
         O8        1.0000    0.58440   0.72340   0.20440   Biso      1.000     O          -0.5292439999999999           
         O9        1.0000    0.71120   0.04060   0.99850   Biso      1.000     O          -0.9152809999999999           
         O10       1.0000    0.37110   0.07730   0.08930   Biso      1.000     O          -0.6101489999999999           
         O11       1.0000    0.28880   0.95940   0.00150   Biso      1.000     O          -0.9152809999999999           
         O12       1.0000    0.63480   0.78120   0.00450   Biso      1.000     O          -0.536085           
         O13       1.0000    0.89620   0.89990   0.13380   Biso      1.000     O          -0.608073           
         O14       1.0000    0.52270   0.87210   0.17080   Biso      1.000     O          -0.57012  
         O15       1.0000    0.00740   0.10900   0.06150   Biso      1.000     O          -0.559571           
         O16       1.0000    0.41560   0.27660   0.79560   Biso      1.000     O          -0.5292439999999999           
         O17       1.0000    0.80380   0.08670   0.17690   Biso      1.000     O          -0.584361           
         O18       1.0000    0.99260   0.89100   0.93850   Biso      1.000     O          -0.559571 