
##########################################################################
#               Crystallographic Information Format file
#               Produced by PyCifRW module
#
#  This is a CIF file.  CIF has been adopted by the International
#  Union of Crystallography as the standard for data archiving and
#  transmission.
#
#  For information on this file format, follow the CIF links at
#  http://www.iucr.org
##########################################################################

data_image0

_cell_length_a                          11.064
_cell_length_b                          15.957
_cell_length_c                          23.362
_cell_angle_alpha                       90
_cell_angle_beta                        92.265
_cell_angle_gamma                       90
_symmetry_space_group_name_H-M          'P 1'
_symmetry_int_tables_number             1
loop_
  _symmetry_equiv_pos_as_xyz
         'x, y, z' 
loop_
  _atom_site_label
  _atom_site_occupancy
  _atom_site_fract_x
  _atom_site_fract_y
  _atom_site_fract_z
  _atom_site_thermal_displace_type
  _atom_site_B_iso_or_equiv
  _atom_site_type_symbol
  _atom_site_charge
         C1        1.0000    0.76440   0.58850   0.32720   Biso      1.000     C          -0.148327           
         C2        1.0000    0.99700   0.53880   0.48480   Biso      1.000     C          -0.00055  
         C3        1.0000    0.32700   0.61970   0.99140   Biso      1.000     C          -0.117647           
         C4        1.0000    0.24390   0.22840   0.13710   Biso      1.000     C          -0.13777899999999998          
         C5        1.0000    0.80440   0.64840   0.36690   Biso      1.000     C          0.095789  
         C6        1.0000    0.01300   0.18900   0.07530   Biso      1.000     C          -0.205929           
         C7        1.0000    0.37340   0.45950   0.75410   Biso      1.000     C          0.691557  
         C8        1.0000    0.65080   0.39160   0.11470   Biso      1.000     C          0.683442  
         C9        1.0000    0.67750   0.89130   0.78440   Biso      1.000     C          -0.024338           
         C10       1.0000    0.98700   0.68900   0.42470   Biso      1.000     C          -0.205929           
         C11       1.0000    0.62160   0.83710   0.32070   Biso      1.000     C          0.634127  
         C12       1.0000    0.68650   0.37260   0.90220   Biso      1.000     C          0.628606  
         C13       1.0000    0.91130   0.39940   0.50580   Biso      1.000     C          0.03083   
         C14       1.0000    0.67300   0.11970   0.50860   Biso      1.000     C          -0.117646           
         C15       1.0000    0.72210   0.15800   0.46170   Biso      1.000     C          -0.0071790000000000005        
         C16       1.0000    0.63220   0.81030   0.78030   Biso      1.000     C          -0.150701           
         C17       1.0000    0.32830   0.25040   0.67940   Biso      1.000     C          -0.025237           
         C18       1.0000    0.24390   0.27160   0.63710   Biso      1.000     C          -0.137776           
         C19       1.0000    0.01300   0.31100   0.57530   Biso      1.000     C          -0.205929           
         C20       1.0000    0.08870   0.60060   0.49420   Biso      1.000     C          0.030832  
         C21       1.0000    0.00300   0.03880   0.01520   Biso      1.000     C          -0.000549           
         C22       1.0000    0.29470   0.85280   0.43660   Biso      1.000     C          -0.034435           
         C23       1.0000    0.80310   0.00640   0.94020   Biso      1.000     C          -0.148378           
         C24       1.0000    0.75610   0.77160   0.86290   Biso      1.000     C          -0.13777999999999999          
         C25       1.0000    0.70530   0.35280   0.06340   Biso      1.000     C          -0.034435           
         C26       1.0000    0.08870   0.89940   0.99420   Biso      1.000     C          0.030833  
         C27       1.0000    0.75610   0.72840   0.36290   Biso      1.000     C          -0.13777899999999998          
         C28       1.0000    0.62660   0.54050   0.24590   Biso      1.000     C          0.691557  
         C29       1.0000    0.29470   0.64720   0.93660   Biso      1.000     C          -0.034434           
         C30       1.0000    0.23560   0.08850   0.17280   Biso      1.000     C          -0.148328           
         C31       1.0000    0.00300   0.46120   0.51520   Biso      1.000     C          -0.00055  
         C32       1.0000    0.80440   0.85160   0.86690   Biso      1.000     C          0.095789  
         C33       1.0000    0.62160   0.66290   0.82070   Biso      1.000     C          0.634127  
         C34       1.0000    0.19560   0.14840   0.13310   Biso      1.000     C          0.095789  
         C35       1.0000    0.32830   0.24960   0.17940   Biso      1.000     C          -0.025234           
         C36       1.0000    0.19150   0.92090   0.03110   Biso      1.000     C          -0.140896           
         C37       1.0000    0.83450   0.25320   0.52440   Biso      1.000     C          0.079208  
         C38       1.0000    0.37840   0.16290   0.67930   Biso      1.000     C          0.634127  
         C39       1.0000    0.67170   0.75040   0.82060   Biso      1.000     C          -0.025233000000000002         
         C40       1.0000    0.67300   0.38030   0.00860   Biso      1.000     C          -0.117645           
         C41       1.0000    0.89750   0.87100   0.91250   Biso      1.000     C          0.019195  
         C42       1.0000    0.80240   0.22400   0.46960   Biso      1.000     C          -0.15499300000000002          
         C43       1.0000    0.98700   0.81100   0.92470   Biso      1.000     C          -0.205929           
         C44       1.0000    0.92060   0.17740   0.03480   Biso      1.000     C          0.042552  
         C45       1.0000    0.80240   0.27600   0.96960   Biso      1.000     C          -0.154996           
         C46       1.0000    0.19150   0.57910   0.53110   Biso      1.000     C          -0.140896           
         C47       1.0000    0.21440   0.78680   0.42940   Biso      1.000     C          -0.17112  
         C48       1.0000    0.10140   0.05410   0.05550   Biso      1.000     C          0.0305    
         C49       1.0000    0.67750   0.60870   0.28440   Biso      1.000     C          -0.024338           
         C50       1.0000    0.80310   0.49360   0.44020   Biso      1.000     C          -0.148378           
         C51       1.0000    0.36780   0.18970   0.21970   Biso      1.000     C          -0.150701           
         C52       1.0000    0.37340   0.04050   0.25410   Biso      1.000     C          0.691557  
         C53       1.0000    0.27790   0.84200   0.53830   Biso      1.000     C          -0.007181999999999999         
         C54       1.0000    0.16550   0.75320   0.97560   Biso      1.000     C          0.079209  
         C55       1.0000    0.83450   0.24680   0.02440   Biso      1.000     C          0.079209  
         C56       1.0000    0.37840   0.33710   0.17930   Biso      1.000     C          0.634127  
         C57       1.0000    0.78560   0.28680   0.07060   Biso      1.000     C          -0.17111600000000002          
         C58       1.0000    0.92060   0.32260   0.53480   Biso      1.000     C          0.042552  
         C59       1.0000    0.80850   0.07910   0.96890   Biso      1.000     C          -0.14086500000000002          
         C60       1.0000    0.07940   0.67740   0.46520   Biso      1.000     C          0.042551  
         C61       1.0000    0.65080   0.10840   0.61470   Biso      1.000     C          0.683441  
         C62       1.0000    0.19760   0.72400   0.03040   Biso      1.000     C          -0.154995           
         C63       1.0000    0.19690   0.99360   0.05980   Biso      1.000     C          -0.148347           
         C64       1.0000    0.34920   0.60840   0.88530   Biso      1.000     C          0.683441  
         C65       1.0000    0.16550   0.74680   0.47560   Biso      1.000     C          0.079211  
         C66       1.0000    0.89750   0.62900   0.41250   Biso      1.000     C          0.019195  
         C67       1.0000    0.89860   0.55410   0.44450   Biso      1.000     C          0.030503  
         C68       1.0000    0.99700   0.96120   0.98480   Biso      1.000     C          -0.000551           
         C69       1.0000    0.32250   0.10870   0.21560   Biso      1.000     C          -0.024338           
         C70       1.0000    0.31350   0.87260   0.59780   Biso      1.000     C          0.628606  
         C71       1.0000    0.10250   0.12900   0.08750   Biso      1.000     C          0.019195  
         C72       1.0000    0.10250   0.37100   0.58750   Biso      1.000     C          0.019195  
         C73       1.0000    0.63220   0.68970   0.28030   Biso      1.000     C          -0.150701           
         C74       1.0000    0.21440   0.71320   0.92940   Biso      1.000     C          -0.17111700000000002          
         C75       1.0000    0.27790   0.65800   0.03830   Biso      1.000     C          -0.007176999999999999         
         C76       1.0000    0.31350   0.62740   0.09780   Biso      1.000     C          0.628606  
         C77       1.0000    0.80850   0.42090   0.46890   Biso      1.000     C          -0.14086500000000002          
         C78       1.0000    0.62660   0.95950   0.74590   Biso      1.000     C          0.691557  
         C79       1.0000    0.78560   0.21320   0.57060   Biso      1.000     C          -0.17111700000000002          
         C80       1.0000    0.19690   0.50640   0.55980   Biso      1.000     C          -0.148347           
         C81       1.0000    0.23560   0.41150   0.67280   Biso      1.000     C          -0.148328           
         C82       1.0000    0.36780   0.31030   0.71970   Biso      1.000     C          -0.1507   
         C83       1.0000    0.07940   0.82260   0.96520   Biso      1.000     C          0.042552  
         C84       1.0000    0.32700   0.88030   0.49140   Biso      1.000     C          -0.11764200000000001          
         C85       1.0000    0.68650   0.12740   0.40220   Biso      1.000     C          0.628606  
         C86       1.0000    0.34920   0.89160   0.38530   Biso      1.000     C          0.683442  
         C87       1.0000    0.72210   0.34200   0.96170   Biso      1.000     C          -0.007176999999999999         
         C88       1.0000    0.19760   0.77600   0.53040   Biso      1.000     C          -0.15499200000000002          
         C89       1.0000    0.89860   0.94590   0.94450   Biso      1.000     C          0.030503  
         C90       1.0000    0.76440   0.91150   0.82720   Biso      1.000     C          -0.148327           
         C91       1.0000    0.19560   0.35160   0.63310   Biso      1.000     C          0.095789  
         C92       1.0000    0.10140   0.44590   0.55550   Biso      1.000     C          0.0305    
         C93       1.0000    0.32250   0.39130   0.71560   Biso      1.000     C          -0.024338           
         C94       1.0000    0.91130   0.10060   0.00580   Biso      1.000     C          0.030829000000000002          
         C95       1.0000    0.67170   0.74960   0.32060   Biso      1.000     C          -0.025233000000000002         
         C96       1.0000    0.70530   0.14720   0.56340   Biso      1.000     C          -0.034434           
         H1        1.0000    0.74440   0.38340   0.46480   Biso      1.000     H          0.11894300000000001           
         H2        1.0000    0.42360   0.20400   0.24890   Biso      1.000     H          0.108795  
         H3        1.0000    0.16470   0.75070   0.56220   Biso      1.000     H          0.118404  
         H4        1.0000    0.38140   0.92420   0.49660   Biso      1.000     H          0.138883  
         H5        1.0000    0.01590   0.26090   0.59560   Biso      1.000     H          0.125921  
         H6        1.0000    0.21860   0.23130   0.61060   Biso      1.000     H          0.13466199999999998           
         H7        1.0000    0.19280   0.76890   0.39250   Biso      1.000     H          0.10815799999999999           
         H8        1.0000    0.79590   0.96550   0.82920   Biso      1.000     H          0.12051500000000001           
         H9        1.0000    0.25560   0.61660   0.53520   Biso      1.000     H          0.11894500000000001           
         H10       1.0000    0.80720   0.23110   0.60750   Biso      1.000     H          0.10815699999999999           
         H11       1.0000    0.38140   0.57580   0.99660   Biso      1.000     H          0.138883  
         H12       1.0000    0.25560   0.88340   0.03520   Biso      1.000     H          0.11894500000000001           
         H13       1.0000    0.83530   0.24930   0.43780   Biso      1.000     H          0.118403  
         H14       1.0000    0.78140   0.73130   0.88940   Biso      1.000     H          0.13466199999999998           
         H15       1.0000    0.42360   0.29600   0.74890   Biso      1.000     H          0.108795  
         H16       1.0000    0.57640   0.70400   0.25110   Biso      1.000     H          0.108795  
         H17       1.0000    0.21860   0.26870   0.11060   Biso      1.000     H          0.13466199999999998           
         H18       1.0000    0.20410   0.03450   0.17080   Biso      1.000     H          0.12051500000000001           
         H19       1.0000    0.20410   0.46550   0.67080   Biso      1.000     H          0.12051500000000001           
         H20       1.0000    0.19280   0.73110   0.89250   Biso      1.000     H          0.10815699999999999           
         H21       1.0000    0.26490   0.49480   0.58320   Biso      1.000     H          0.113802  
         H22       1.0000    0.61860   0.07580   0.50340   Biso      1.000     H          0.138883  
         H23       1.0000    0.01590   0.23910   0.09560   Biso      1.000     H          0.125921  
         H24       1.0000    0.78140   0.76870   0.38940   Biso      1.000     H          0.13466199999999998           
         H25       1.0000    0.73510   0.50520   0.41680   Biso      1.000     H          0.113804  
         H26       1.0000    0.98410   0.76090   0.90440   Biso      1.000     H          0.125921  
         H27       1.0000    0.83530   0.25070   0.93780   Biso      1.000     H          0.118404  
         H28       1.0000    0.26490   0.00520   0.08320   Biso      1.000     H          0.113802  
         H29       1.0000    0.98410   0.73910   0.40440   Biso      1.000     H          0.125921  
         H30       1.0000    0.73510   0.99480   0.91680   Biso      1.000     H          0.113804  
         H31       1.0000    0.61860   0.42420   0.00340   Biso      1.000     H          0.138883  
         H32       1.0000    0.79590   0.53450   0.32920   Biso      1.000     H          0.12051500000000001           
         H33       1.0000    0.80720   0.26890   0.10750   Biso      1.000     H          0.10815699999999999           
         H34       1.0000    0.74440   0.11660   0.96480   Biso      1.000     H          0.11894300000000001           
         H35       1.0000    0.16470   0.74930   0.06220   Biso      1.000     H          0.118404  
         H36       1.0000    0.57640   0.79600   0.75110   Biso      1.000     H          0.108795  
         Mg1       1.0000    0.35870   0.84676   0.25929   Biso      1.000     Mg          1.586487  
         Mg2       1.0000    0.35870   0.65324   0.75929   Biso      1.000     Mg          1.586487  
         Mg3       1.0000    0.64130   0.34676   0.24071   Biso      1.000     Mg          1.586487  
         Mg4       1.0000    0.44725   0.01090   0.66054   Biso      1.000     Mg          1.367852  
         Mg5       1.0000    0.44725   0.48910   0.16054   Biso      1.000     Mg          1.367853  
         Mg6       1.0000    0.55275   0.98910   0.33946   Biso      1.000     Mg          1.367853  
         Mg7       1.0000    0.55275   0.51090   0.83946   Biso      1.000     Mg          1.367852  
         Mg8       1.0000    0.64130   0.15324   0.74071   Biso      1.000     Mg          1.586487  
         O1        1.0000    0.62100   0.43450   0.89862   Biso      1.000     O          -0.657801           
         O2        1.0000    0.62100   0.06550   0.39862   Biso      1.000     O          -0.657801           
         O3        1.0000    0.65220   0.46610   0.26110   Biso      1.000     O          -0.776888           
         O4        1.0000    0.53900   0.85710   0.28510   Biso      1.000     O          -0.7830550000000001           
         O5        1.0000    0.43860   0.06090   0.29510   Biso      1.000     O          -0.6186649999999999           
         O6        1.0000    0.34780   0.53390   0.73890   Biso      1.000     O          -0.776888           
         O7        1.0000    0.30900   0.86590   0.33780   Biso      1.000     O          -0.7886029999999999           
         O8        1.0000    0.34780   0.96610   0.23890   Biso      1.000     O          -0.776888           
         O9        1.0000    0.37900   0.56550   0.10138   Biso      1.000     O          -0.657801           
         O10       1.0000    0.30900   0.63410   0.83780   Biso      1.000     O          -0.7886029999999999           
         O11       1.0000    0.33450   0.38820   0.14320   Biso      1.000     O          -0.574393           
         O12       1.0000    0.27350   0.66680   0.13930   Biso      1.000     O          -0.698235           
         O13       1.0000    0.66550   0.88820   0.35680   Biso      1.000     O          -0.574393           
         O14       1.0000    0.56140   0.56090   0.20490   Biso      1.000     O          -0.6186649999999999           
         O15       1.0000    0.46100   0.14290   0.71490   Biso      1.000     O          -0.7830550000000001           
         O16       1.0000    0.69100   0.36590   0.16220   Biso      1.000     O          -0.7886029999999999           
         O17       1.0000    0.43860   0.43910   0.79510   Biso      1.000     O          -0.6186649999999999           
         O18       1.0000    0.33450   0.11180   0.64320   Biso      1.000     O          -0.574393           
         O19       1.0000    0.65220   0.03390   0.76110   Biso      1.000     O          -0.776888           
         O20       1.0000    0.56140   0.93910   0.70490   Biso      1.000     O          -0.6186649999999999           
         O21       1.0000    0.72650   0.33320   0.86070   Biso      1.000     O          -0.698235           
         O22       1.0000    0.56930   0.44480   0.10704   Biso      1.000     O          -0.613124           
         O23       1.0000    0.69100   0.13410   0.66220   Biso      1.000     O          -0.7886029999999999           
         O24       1.0000    0.56930   0.05520   0.60704   Biso      1.000     O          -0.613124           
         O25       1.0000    0.66550   0.61180   0.85680   Biso      1.000     O          -0.574393           
         O26       1.0000    0.43070   0.94480   0.39296   Biso      1.000     O          -0.613124           
         O27       1.0000    0.53900   0.64290   0.78510   Biso      1.000     O          -0.7830550000000001           
         O28       1.0000    0.72650   0.16680   0.36070   Biso      1.000     O          -0.698235           
         O29       1.0000    0.27350   0.83320   0.63930   Biso      1.000     O          -0.698235           
         O30       1.0000    0.46100   0.35710   0.21490   Biso      1.000     O          -0.7830550000000001           
         O31       1.0000    0.37900   0.93450   0.60138   Biso      1.000     O          -0.657801           
         O32       1.0000    0.43070   0.55520   0.89296   Biso      1.000     O          -0.613124 