
##########################################################################
#               Crystallographic Information Format file
#               Produced by PyCifRW module
#
#  This is a CIF file.  CIF has been adopted by the International
#  Union of Crystallography as the standard for data archiving and
#  transmission.
#
#  For information on this file format, follow the CIF links at
#  http://www.iucr.org
##########################################################################

data_image0

_cell_length_a                          12.1323
_cell_length_b                          12.3676
_cell_length_c                          13.3757
_cell_angle_alpha                       101.748
_cell_angle_beta                        99.025
_cell_angle_gamma                       105.984
_symmetry_space_group_name_H-M          'P 1'
_symmetry_int_tables_number             1
loop_
  _symmetry_equiv_pos_as_xyz
         'x, y, z' 
loop_
  _atom_site_label
  _atom_site_occupancy
  _atom_site_fract_x
  _atom_site_fract_y
  _atom_site_fract_z
  _atom_site_thermal_displace_type
  _atom_site_B_iso_or_equiv
  _atom_site_type_symbol
  _atom_site_charge
         C1        1.0000    0.44430   0.48660   0.01300   Biso      1.000     C          0.086138  
         C2        1.0000    0.65520   0.04520   0.57550   Biso      1.000     C          -0.139785           
         C3        1.0000    0.52510   0.49590   0.30140   Biso      1.000     C          0.6817439999999999  
         C4        1.0000    0.43800   0.48360   0.11660   Biso      1.000     C          -0.149324           
         C5        1.0000    0.53480   0.49970   0.19150   Biso      1.000     C          -0.027582           
         C6        1.0000    0.64670   0.52470   0.16530   Biso      1.000     C          -0.11682100000000001          
         C7        1.0000    0.34510   0.46960   0.93360   Biso      1.000     C          -0.141833           
         C8        1.0000    0.80850   0.49200   0.72210   Biso      1.000     C          0.59187   
         C9        1.0000    0.01050   0.55670   0.99300   Biso      1.000     C          0.081319  
         C10       1.0000    0.94620   0.56940   0.90030   Biso      1.000     C          -0.17036400000000002          
         C11       1.0000    0.87130   0.47520   0.82470   Biso      1.000     C          -0.008472           
         C12       1.0000    0.85360   0.36490   0.84000   Biso      1.000     C          -0.11408  
         C13       1.0000    0.33040   0.05850   0.41810   Biso      1.000     C          -0.10971500000000001          
         C14       1.0000    0.09130   0.65290   0.07060   Biso      1.000     C          -0.148179           
         C15       1.0000    0.45100   0.94810   0.47890   Biso      1.000     C          0.089132  
         C16       1.0000    0.46700   0.84040   0.48790   Biso      1.000     C          -0.16509300000000002          
         C17       1.0000    0.57390   0.83740   0.53710   Biso      1.000     C          -0.022934           
         C18       1.0000    0.66960   0.94150   0.58190   Biso      1.000     C          -0.109706           
         C19       1.0000    0.34480   0.95480   0.42450   Biso      1.000     C          -0.13977699999999998          
         C20       1.0000    0.47490   0.50410   0.69860   Biso      1.000     C          0.6817439999999999  
         C21       1.0000    0.55570   0.51340   0.98700   Biso      1.000     C          0.086137  
         C22       1.0000    0.56200   0.51640   0.88340   Biso      1.000     C          -0.149324           
         C23       1.0000    0.46520   0.50030   0.80850   Biso      1.000     C          -0.027583           
         C24       1.0000    0.35330   0.47530   0.83470   Biso      1.000     C          -0.116808           
         C25       1.0000    0.65490   0.53040   0.06640   Biso      1.000     C          -0.141821           
         C26       1.0000    0.59070   0.72170   0.54380   Biso      1.000     C          0.661054  
         C27       1.0000    0.53300   0.15960   0.51210   Biso      1.000     C          -0.16509300000000002          
         C28       1.0000    0.42610   0.16260   0.46290   Biso      1.000     C          -0.022933000000000002         
         C29       1.0000    0.40930   0.27830   0.45620   Biso      1.000     C          0.661054  
         C30       1.0000    0.54900   0.05190   0.52110   Biso      1.000     C          0.089133  
         C31       1.0000    0.98950   0.44330   0.00700   Biso      1.000     C          0.081318  
         C32       1.0000    0.05380   0.43060   0.09970   Biso      1.000     C          -0.17036400000000002          
         C33       1.0000    0.19150   0.50800   0.27790   Biso      1.000     C          0.59187   
         C34       1.0000    0.14640   0.63510   0.16000   Biso      1.000     C          -0.114072           
         C35       1.0000    0.90870   0.34710   0.92940   Biso      1.000     C          -0.14817  
         C36       1.0000    0.12870   0.52480   0.17530   Biso      1.000     C          -0.008472           
         H1        1.0000    0.19730   0.69900   0.21230   Biso      1.000     H          0.115502  
         H2        1.0000    0.04450   0.35640   0.10910   Biso      1.000     H          0.129619  
         H3        1.0000    0.89310   0.27240   0.93910   Biso      1.000     H          0.12305899999999999           
         H4        1.0000    0.59550   0.22850   0.53970   Biso      1.000     H          0.12321300000000002           
         H5        1.0000    0.25840   0.06110   0.38450   Biso      1.000     H          0.12761199999999998           
         H6        1.0000    0.71700   0.11350   0.60780   Biso      1.000     H          0.12031199999999999           
         H7        1.0000    0.36520   0.47010   0.13430   Biso      1.000     H          0.125222  
         H8        1.0000    0.71410   0.53710   0.21590   Biso      1.000     H          0.11685799999999999           
         H9        1.0000    0.27140   0.45390   0.94960   Biso      1.000     H          0.11611700000000001           
         H10       1.0000    0.10690   0.72760   0.06090   Biso      1.000     H          0.12305999999999999           
         H11       1.0000    0.80270   0.30100   0.78770   Biso      1.000     H          0.115502  
         H12       1.0000    0.40450   0.77150   0.46030   Biso      1.000     H          0.12321199999999999           
         H13       1.0000    0.74160   0.93890   0.61550   Biso      1.000     H          0.127611  
         H14       1.0000    0.28300   0.88650   0.39220   Biso      1.000     H          0.12031099999999999           
         H15       1.0000    0.63480   0.52990   0.86570   Biso      1.000     H          0.125222  
         H16       1.0000    0.28590   0.46290   0.78410   Biso      1.000     H          0.11685799999999999           
         H17       1.0000    0.72860   0.54610   0.05040   Biso      1.000     H          0.11611600000000001           
         H18       1.0000    0.95550   0.64360   0.89090   Biso      1.000     H          0.129619  
         O1        1.0000    0.69160   0.72140   0.57860   Biso      1.000     O          -0.611211           
         O2        1.0000    0.61980   0.52520   0.36860   Biso      1.000     O          -0.715438           
         O3        1.0000    0.50290   0.63070   0.51090   Biso      1.000     O          -0.762608           
         O4        1.0000    0.73730   0.40450   0.65870   Biso      1.000     O          -0.659114           
         O5        1.0000    0.82830   0.59130   0.70860   Biso      1.000     O          -0.6481100000000001           
         O6        1.0000    0.42320   0.46310   0.31730   Biso      1.000     O          -0.640871           
         O7        1.0000    0.38020   0.47480   0.63140   Biso      1.000     O          -0.715438           
         O8        1.0000    0.30840   0.27860   0.42140   Biso      1.000     O          -0.61121  
         O9        1.0000    0.26270   0.59550   0.34130   Biso      1.000     O          -0.659114           
         O10       1.0000    0.17170   0.40870   0.29140   Biso      1.000     O          -0.6481100000000001           
         O11       1.0000    0.57680   0.53690   0.68270   Biso      1.000     O          -0.640871           
         O12       1.0000    0.49710   0.36930   0.48910   Biso      1.000     O          -0.762608           
         Tb1       1.0000    0.67354   0.51879   0.54568   Biso      1.000     Tb          2.062736  
         Tb2       1.0000    0.32646   0.48121   0.45432   Biso      1.000     Tb          2.062736 