
##########################################################################
#               Crystallographic Information Format file
#               Produced by PyCifRW module
#
#  This is a CIF file.  CIF has been adopted by the International
#  Union of Crystallography as the standard for data archiving and
#  transmission.
#
#  For information on this file format, follow the CIF links at
#  http://www.iucr.org
##########################################################################

data_image0

_cell_length_a                          12.117
_cell_length_b                          12.335
_cell_length_c                          13.412
_cell_angle_alpha                       101.569
_cell_angle_beta                        99.036
_cell_angle_gamma                       106.286
_symmetry_space_group_name_H-M          'P 1'
_symmetry_int_tables_number             1
loop_
  _symmetry_equiv_pos_as_xyz
         'x, y, z' 
loop_
  _atom_site_label
  _atom_site_occupancy
  _atom_site_fract_x
  _atom_site_fract_y
  _atom_site_fract_z
  _atom_site_thermal_displace_type
  _atom_site_B_iso_or_equiv
  _atom_site_type_symbol
  _atom_site_charge
         C1        1.0000    0.44390   0.48680   0.01250   Biso      1.000     C          0.06829   
         C2        1.0000    0.19080   0.50940   0.27570   Biso      1.000     C          0.5585100000000001  
         C3        1.0000    0.98970   0.44320   0.00660   Biso      1.000     C          0.079693  
         C4        1.0000    0.05360   0.43000   0.10120   Biso      1.000     C          -0.152564           
         C5        1.0000    0.12640   0.52150   0.17430   Biso      1.000     C          -0.008896           
         C6        1.0000    0.14570   0.63370   0.15730   Biso      1.000     C          -0.099218           
         C7        1.0000    0.91230   0.35180   0.93260   Biso      1.000     C          -0.13592100000000001          
         C8        1.0000    0.34570   0.47290   0.93490   Biso      1.000     C          -0.096688           
         C9        1.0000    0.40850   0.27730   0.45600   Biso      1.000     C          0.592985  
         C10       1.0000    0.53090   0.15960   0.51330   Biso      1.000     C          -0.125147           
         C11       1.0000    0.42550   0.16100   0.46120   Biso      1.000     C          -0.002191           
         C12       1.0000    0.33160   0.05560   0.41570   Biso      1.000     C          -0.100668           
         C13       1.0000    0.65580   0.04770   0.57470   Biso      1.000     C          -0.1081   
         C14       1.0000    0.52510   0.49590   0.30070   Biso      1.000     C          0.602701  
         C15       1.0000    0.64600   0.52010   0.16240   Biso      1.000     C          -0.09908  
         C16       1.0000    0.54530   0.05130   0.52180   Biso      1.000     C          0.07357799999999999           
         C17       1.0000    0.80920   0.49060   0.72430   Biso      1.000     C          0.558512  
         C18       1.0000    0.01030   0.55680   0.99340   Biso      1.000     C          0.079692  
         C19       1.0000    0.94640   0.57000   0.89880   Biso      1.000     C          -0.152564           
         C20       1.0000    0.65430   0.52710   0.06510   Biso      1.000     C          -0.096665           
         C21       1.0000    0.35400   0.47990   0.83760   Biso      1.000     C          -0.09905599999999999          
         C22       1.0000    0.46290   0.49960   0.81040   Biso      1.000     C          0.001834  
         C23       1.0000    0.56340   0.51830   0.88430   Biso      1.000     C          -0.123912           
         C24       1.0000    0.55610   0.51320   0.98750   Biso      1.000     C          0.068287  
         C25       1.0000    0.47490   0.50410   0.69930   Biso      1.000     C          0.6027020000000001  
         C26       1.0000    0.34420   0.95230   0.42530   Biso      1.000     C          -0.10808599999999999          
         C27       1.0000    0.66840   0.94440   0.58430   Biso      1.000     C          -0.10065299999999999          
         C28       1.0000    0.57450   0.83900   0.53880   Biso      1.000     C          -0.002199           
         C29       1.0000    0.46910   0.84040   0.48670   Biso      1.000     C          -0.12514  
         C30       1.0000    0.45470   0.94870   0.47820   Biso      1.000     C          0.073584  
         C31       1.0000    0.59150   0.72270   0.54400   Biso      1.000     C          0.592986  
         C32       1.0000    0.08770   0.64820   0.06740   Biso      1.000     C          -0.135914           
         C33       1.0000    0.85430   0.36630   0.84270   Biso      1.000     C          -0.09921100000000001          
         C34       1.0000    0.87360   0.47850   0.82570   Biso      1.000     C          -0.008897           
         C35       1.0000    0.43660   0.48170   0.11570   Biso      1.000     C          -0.12391600000000001          
         C36       1.0000    0.53710   0.50040   0.18960   Biso      1.000     C          0.0018399999999999998         
         Eu1       1.0000    0.32640   0.48118   0.45422   Biso      1.000     Eu          1.368841  
         Eu2       1.0000    0.67360   0.51882   0.54578   Biso      1.000     Eu          1.36884   
         H1        1.0000    0.72800   0.54170   0.04870   Biso      1.000     H          0.1157    
         H2        1.0000    0.04330   0.35550   0.11080   Biso      1.000     H          0.13202   
         H3        1.0000    0.19830   0.69860   0.20760   Biso      1.000     H          0.114808  
         H4        1.0000    0.59290   0.22910   0.54300   Biso      1.000     H          0.131701  
         H5        1.0000    0.26050   0.05720   0.37890   Biso      1.000     H          0.127429  
         H6        1.0000    0.71910   0.11640   0.60260   Biso      1.000     H          0.126419  
         H7        1.0000    0.36370   0.46570   0.13360   Biso      1.000     H          0.130063  
         H8        1.0000    0.71300   0.52840   0.21170   Biso      1.000     H          0.12398499999999998           
         H9        1.0000    0.89770   0.27720   0.94270   Biso      1.000     H          0.12197899999999999           
         H10       1.0000    0.95670   0.64450   0.88920   Biso      1.000     H          0.132019  
         H11       1.0000    0.80170   0.30140   0.79240   Biso      1.000     H          0.114808  
         H12       1.0000    0.10230   0.72280   0.05730   Biso      1.000     H          0.12197899999999999           
         H13       1.0000    0.40710   0.77090   0.45700   Biso      1.000     H          0.131701  
         H14       1.0000    0.73950   0.94280   0.62110   Biso      1.000     H          0.12742799999999999           
         H15       1.0000    0.28090   0.88360   0.39740   Biso      1.000     H          0.126418  
         H16       1.0000    0.63630   0.53430   0.86640   Biso      1.000     H          0.130063  
         H17       1.0000    0.28700   0.47160   0.78830   Biso      1.000     H          0.123984  
         H18       1.0000    0.27200   0.45830   0.95130   Biso      1.000     H          0.115702  
         O1        1.0000    0.50730   0.63140   0.51280   Biso      1.000     O          -0.602753           
         O2        1.0000    0.69480   0.72450   0.58100   Biso      1.000     O          -0.538262           
         O3        1.0000    0.73710   0.40300   0.66120   Biso      1.000     O          -0.577104           
         O4        1.0000    0.83070   0.59140   0.70860   Biso      1.000     O          -0.5557449999999999           
         O5        1.0000    0.62110   0.52450   0.36680   Biso      1.000     O          -0.606647           
         O6        1.0000    0.26290   0.59700   0.33880   Biso      1.000     O          -0.577104           
         O7        1.0000    0.49270   0.36860   0.48720   Biso      1.000     O          -0.602753           
         O8        1.0000    0.30520   0.27550   0.41900   Biso      1.000     O          -0.538263           
         O9        1.0000    0.16930   0.40860   0.29140   Biso      1.000     O          -0.555741           
         O10       1.0000    0.57640   0.53730   0.68530   Biso      1.000     O          -0.537687           
         O11       1.0000    0.42360   0.46270   0.31470   Biso      1.000     O          -0.537687           
         O12       1.0000    0.37890   0.47550   0.63320   Biso      1.000     O          -0.606649 