
##########################################################################
#               Crystallographic Information Format file
#               Produced by PyCifRW module
#
#  This is a CIF file.  CIF has been adopted by the International
#  Union of Crystallography as the standard for data archiving and
#  transmission.
#
#  For information on this file format, follow the CIF links at
#  http://www.iucr.org
##########################################################################

data_image0

_cell_length_a                          12.2015
_cell_length_b                          12.3678
_cell_length_c                          13.5203
_cell_angle_alpha                       102.222
_cell_angle_beta                        98.704
_cell_angle_gamma                       106.48
_symmetry_space_group_name_H-M          'P 1'
_symmetry_int_tables_number             1
loop_
  _symmetry_equiv_pos_as_xyz
         'x, y, z' 
loop_
  _atom_site_label
  _atom_site_occupancy
  _atom_site_fract_x
  _atom_site_fract_y
  _atom_site_fract_z
  _atom_site_thermal_displace_type
  _atom_site_B_iso_or_equiv
  _atom_site_type_symbol
  _atom_site_charge
         C1        1.0000    0.44550   0.48860   0.01250   Biso      1.000     C          0.087381  
         C2        1.0000    0.18850   0.50910   0.27180   Biso      1.000     C          0.5872069999999999  
         C3        1.0000    0.99000   0.44290   0.00470   Biso      1.000     C          0.08682999999999999           
         C4        1.0000    0.05160   0.43060   0.10060   Biso      1.000     C          -0.165793           
         C5        1.0000    0.12750   0.52330   0.17250   Biso      1.000     C          -0.01078  
         C6        1.0000    0.14860   0.63480   0.15630   Biso      1.000     C          -0.11216300000000001          
         C7        1.0000    0.91040   0.35260   0.93320   Biso      1.000     C          -0.14888900000000002          
         C8        1.0000    0.34660   0.47500   0.93780   Biso      1.000     C          -0.139415           
         C9        1.0000    0.40220   0.26990   0.45270   Biso      1.000     C          0.657229  
         C10       1.0000    0.52550   0.15850   0.51320   Biso      1.000     C          -0.16569  
         C11       1.0000    0.42210   0.15720   0.46010   Biso      1.000     C          -0.02203  
         C12       1.0000    0.33260   0.05170   0.41470   Biso      1.000     C          -0.11078900000000001          
         C13       1.0000    0.65130   0.05180   0.57770   Biso      1.000     C          -0.148517           
         C14       1.0000    0.52750   0.49390   0.29730   Biso      1.000     C          0.6674770000000001  
         C15       1.0000    0.64570   0.52010   0.15920   Biso      1.000     C          -0.119405           
         C16       1.0000    0.54460   0.05230   0.52310   Biso      1.000     C          0.09445   
         C17       1.0000    0.81150   0.49090   0.72820   Biso      1.000     C          0.5872069999999999  
         C18       1.0000    0.01000   0.55710   0.99530   Biso      1.000     C          0.08682999999999999           
         C19       1.0000    0.94840   0.56940   0.89940   Biso      1.000     C          -0.165793           
         C20       1.0000    0.65340   0.52500   0.06220   Biso      1.000     C          -0.13939000000000001          
         C21       1.0000    0.35430   0.47990   0.84080   Biso      1.000     C          -0.119377           
         C22       1.0000    0.46350   0.50160   0.81320   Biso      1.000     C          -0.029763           
         C23       1.0000    0.56120   0.51680   0.88440   Biso      1.000     C          -0.16031800000000002          
         C24       1.0000    0.55450   0.51140   0.98750   Biso      1.000     C          0.087381  
         C25       1.0000    0.47250   0.50610   0.70270   Biso      1.000     C          0.667478  
         C26       1.0000    0.34870   0.94820   0.42230   Biso      1.000     C          -0.14851199999999998          
         C27       1.0000    0.66740   0.94830   0.58530   Biso      1.000     C          -0.11078199999999999          
         C28       1.0000    0.57790   0.84280   0.53990   Biso      1.000     C          -0.02205  
         C29       1.0000    0.47450   0.84150   0.48680   Biso      1.000     C          -0.165671           
         C30       1.0000    0.45540   0.94770   0.47690   Biso      1.000     C          0.094448  
         C31       1.0000    0.59780   0.73010   0.54730   Biso      1.000     C          0.657231  
         C32       1.0000    0.08960   0.64740   0.06680   Biso      1.000     C          -0.148883           
         C33       1.0000    0.85140   0.36520   0.84370   Biso      1.000     C          -0.11215699999999999          
         C34       1.0000    0.87250   0.47670   0.82750   Biso      1.000     C          -0.010781           
         C35       1.0000    0.43880   0.48320   0.11560   Biso      1.000     C          -0.160332           
         C36       1.0000    0.53650   0.49840   0.18680   Biso      1.000     C          -0.029744999999999997         
         Ce1       1.0000    0.32514   0.48091   0.45396   Biso      1.000     Ce          2.03805   
         Ce2       1.0000    0.67486   0.51909   0.54604   Biso      1.000     Ce          2.03805   
         H1        1.0000    0.72590   0.53770   0.04450   Biso      1.000     H          0.11472   
         H2        1.0000    0.03750   0.35670   0.11180   Biso      1.000     H          0.130944  
         H3        1.0000    0.20220   0.69990   0.20580   Biso      1.000     H          0.11665199999999999           
         H4        1.0000    0.58510   0.22950   0.54380   Biso      1.000     H          0.118086  
         H5        1.0000    0.26100   0.05110   0.37890   Biso      1.000     H          0.12372999999999999           
         H6        1.0000    0.71180   0.12210   0.60910   Biso      1.000     H          0.12523299999999998           
         H7        1.0000    0.36680   0.46900   0.13420   Biso      1.000     H          0.128522  
         H8        1.0000    0.71280   0.53110   0.20840   Biso      1.000     H          0.11420599999999999           
         H9        1.0000    0.89410   0.27850   0.94410   Biso      1.000     H          0.118698  
         H10       1.0000    0.96250   0.64330   0.88820   Biso      1.000     H          0.130944  
         H11       1.0000    0.79780   0.30010   0.79420   Biso      1.000     H          0.11665199999999999           
         H12       1.0000    0.10590   0.72150   0.05590   Biso      1.000     H          0.118698  
         H13       1.0000    0.41490   0.77050   0.45620   Biso      1.000     H          0.118085  
         H14       1.0000    0.73900   0.94890   0.62110   Biso      1.000     H          0.12372999999999999           
         H15       1.0000    0.28820   0.87790   0.39090   Biso      1.000     H          0.12523299999999998           
         H16       1.0000    0.63320   0.53100   0.86580   Biso      1.000     H          0.128521  
         H17       1.0000    0.28720   0.46890   0.79160   Biso      1.000     H          0.114204  
         H18       1.0000    0.27410   0.46230   0.95550   Biso      1.000     H          0.114722  
         O1        1.0000    0.51530   0.63630   0.51420   Biso      1.000     O          -0.74331  
         O2        1.0000    0.69810   0.73390   0.58570   Biso      1.000     O          -0.6045   
         O3        1.0000    0.73780   0.40120   0.66450   Biso      1.000     O          -0.65354  
         O4        1.0000    0.83410   0.59130   0.71250   Biso      1.000     O          -0.6462760000000001           
         O5        1.0000    0.62190   0.52070   0.36130   Biso      1.000     O          -0.696047           
         O6        1.0000    0.26220   0.59880   0.33550   Biso      1.000     O          -0.65354  
         O7        1.0000    0.48470   0.36370   0.48580   Biso      1.000     O          -0.74331  
         O8        1.0000    0.30190   0.26610   0.41430   Biso      1.000     O          -0.6045   
         O9        1.0000    0.16590   0.40870   0.28750   Biso      1.000     O          -0.6462760000000001           
         O10       1.0000    0.57380   0.53690   0.68780   Biso      1.000     O          -0.632228           
         O11       1.0000    0.42620   0.46310   0.31220   Biso      1.000     O          -0.632228           
         O12       1.0000    0.37810   0.47930   0.63870   Biso      1.000     O          -0.696048 