
##########################################################################
#               Crystallographic Information Format file
#               Produced by PyCifRW module
#
#  This is a CIF file.  CIF has been adopted by the International
#  Union of Crystallography as the standard for data archiving and
#  transmission.
#
#  For information on this file format, follow the CIF links at
#  http://www.iucr.org
##########################################################################

data_image0

_cell_length_a                          18.2591
_cell_length_b                          18.2591
_cell_length_c                          6.6274
_cell_angle_alpha                       90
_cell_angle_beta                        90
_cell_angle_gamma                       120
_symmetry_space_group_name_H-M          'P 1'
_symmetry_int_tables_number             1
loop_
  _symmetry_equiv_pos_as_xyz
         'x, y, z' 
loop_
  _atom_site_label
  _atom_site_occupancy
  _atom_site_fract_x
  _atom_site_fract_y
  _atom_site_fract_z
  _atom_site_thermal_displace_type
  _atom_site_B_iso_or_equiv
  _atom_site_type_symbol
  _atom_site_charge
         C1        1.0000    0.12490   0.74380   0.55400   Biso      1.000     C          -0.143088           
         C2        1.0000    0.57800   0.72370   0.73900   Biso      1.000     C          -0.009908           
         C3        1.0000    0.55220   0.64100   0.83800   Biso      1.000     C          0.586762  
         C4        1.0000    0.25190   0.19410   0.99700   Biso      1.000     C          -0.226102           
         C5        1.0000    0.74810   0.80590   0.00300   Biso      1.000     C          -0.22629  
         C6        1.0000    0.61890   0.87510   0.55400   Biso      1.000     C          -0.145589           
         C7        1.0000    0.57800   0.85430   0.73900   Biso      1.000     C          -0.017226           
         C8        1.0000    0.55220   0.91120   0.83800   Biso      1.000     C          0.591558  
         C9        1.0000    0.35840   0.17920   0.53600   Biso      1.000     C          -0.060333           
         C10       1.0000    0.44040   0.22020   0.16900   Biso      1.000     C          -0.159927           
         C11       1.0000    0.19410   0.94220   0.00300   Biso      1.000     C          -0.230552           
         C12       1.0000    0.72370   0.57800   0.26100   Biso      1.000     C          -0.011507           
         C13       1.0000    0.14570   0.72370   0.73900   Biso      1.000     C          -0.011529           
         C14       1.0000    0.08880   0.64100   0.83800   Biso      1.000     C          0.588255  
         C15       1.0000    0.31480   0.15740   0.73000   Biso      1.000     C          0.324054  
         C16       1.0000    0.82080   0.17920   0.53600   Biso      1.000     C          -0.061383           
         C17       1.0000    0.61890   0.74380   0.55400   Biso      1.000     C          -0.144438           
         C18       1.0000    0.77980   0.22020   0.16900   Biso      1.000     C          -0.158357           
         C19       1.0000    0.74810   0.94220   0.00300   Biso      1.000     C          -0.229189           
         C20       1.0000    0.42200   0.14570   0.26100   Biso      1.000     C          -0.016969           
         C21       1.0000    0.74380   0.61890   0.44600   Biso      1.000     C          -0.143491           
         C22       1.0000    0.94220   0.74810   0.99700   Biso      1.000     C          -0.232363           
         C23       1.0000    0.19410   0.25190   0.00300   Biso      1.000     C          -0.233373           
         C24       1.0000    0.12490   0.38110   0.55400   Biso      1.000     C          -0.141599           
         C25       1.0000    0.14570   0.42200   0.73900   Biso      1.000     C          -0.013111           
         C26       1.0000    0.08880   0.44780   0.83800   Biso      1.000     C          0.588253  
         C27       1.0000    0.91120   0.35900   0.16200   Biso      1.000     C          0.588452  
         C28       1.0000    0.85430   0.27630   0.26100   Biso      1.000     C          -0.011787           
         C29       1.0000    0.87510   0.25620   0.44600   Biso      1.000     C          -0.142447           
         C30       1.0000    0.80590   0.05780   0.99700   Biso      1.000     C          -0.231046           
         C31       1.0000    0.05780   0.80590   0.00300   Biso      1.000     C          -0.237034           
         C32       1.0000    0.25620   0.87510   0.55400   Biso      1.000     C          -0.143349           
         C33       1.0000    0.27630   0.85430   0.73900   Biso      1.000     C          -0.017349           
         C34       1.0000    0.35900   0.91120   0.83800   Biso      1.000     C          0.591431  
         C35       1.0000    0.44780   0.08880   0.16200   Biso      1.000     C          0.591486  
         C36       1.0000    0.38110   0.12490   0.44600   Biso      1.000     C          -0.145169           
         C37       1.0000    0.84260   0.15740   0.73000   Biso      1.000     C          0.327183  
         C38       1.0000    0.64100   0.55220   0.16200   Biso      1.000     C          0.586633  
         C39       1.0000    0.05780   0.25190   0.00300   Biso      1.000     C          -0.233107           
         C40       1.0000    0.15740   0.31480   0.27000   Biso      1.000     C          0.329306  
         C41       1.0000    0.22020   0.77980   0.83100   Biso      1.000     C          -0.158403           
         C42       1.0000    0.15740   0.84260   0.27000   Biso      1.000     C          0.32528   
         C43       1.0000    0.94220   0.19410   0.99700   Biso      1.000     C          -0.237934           
         C44       1.0000    0.74380   0.12490   0.44600   Biso      1.000     C          -0.143807           
         C45       1.0000    0.72370   0.14570   0.26100   Biso      1.000     C          -0.017513           
         C46       1.0000    0.91120   0.55220   0.16200   Biso      1.000     C          0.587943  
         C47       1.0000    0.64100   0.08880   0.16200   Biso      1.000     C          0.591391  
         C48       1.0000    0.55960   0.77980   0.83100   Biso      1.000     C          -0.159647           
         C49       1.0000    0.68520   0.84260   0.27000   Biso      1.000     C          0.32469   
         C50       1.0000    0.25190   0.05780   0.99700   Biso      1.000     C          -0.228479           
         C51       1.0000    0.38110   0.25620   0.44600   Biso      1.000     C          -0.144647           
         C52       1.0000    0.42200   0.27630   0.26100   Biso      1.000     C          -0.010465           
         C53       1.0000    0.44780   0.35900   0.16200   Biso      1.000     C          0.587232  
         C54       1.0000    0.64160   0.82080   0.46400   Biso      1.000     C          -0.059886           
         C55       1.0000    0.85430   0.57800   0.26100   Biso      1.000     C          -0.013203           
         C56       1.0000    0.17920   0.82080   0.46400   Biso      1.000     C          -0.06101  
         C57       1.0000    0.80590   0.74810   0.99700   Biso      1.000     C          -0.233776           
         C58       1.0000    0.25620   0.38110   0.55400   Biso      1.000     C          -0.141762           
         C59       1.0000    0.27630   0.42200   0.73900   Biso      1.000     C          -0.011072           
         C60       1.0000    0.35900   0.44780   0.83800   Biso      1.000     C          0.586576  
         C61       1.0000    0.82080   0.64160   0.53600   Biso      1.000     C          -0.062996           
         C62       1.0000    0.77980   0.55960   0.16900   Biso      1.000     C          -0.156493           
         C63       1.0000    0.84260   0.68520   0.73000   Biso      1.000     C          0.32881   
         C64       1.0000    0.87510   0.61890   0.44600   Biso      1.000     C          -0.141725           
         C65       1.0000    0.22020   0.44040   0.83100   Biso      1.000     C          -0.155187           
         C66       1.0000    0.17920   0.35840   0.46400   Biso      1.000     C          -0.062478           
         Cu1       1.0000    0.95026   0.47513   0.84350   Biso      1.000     Cu          0.841456  
         Cu2       1.0000    0.52487   0.04974   0.84350   Biso      1.000     Cu          0.860457  
         Cu3       1.0000    0.47513   0.95026   0.15650   Biso      1.000     Cu          0.871657  
         Cu4       1.0000    0.47513   0.52487   0.15650   Biso      1.000     Cu          0.813792  
         Cu5       1.0000    0.04974   0.52487   0.15650   Biso      1.000     Cu          0.840163  
         Cu6       1.0000    0.52487   0.47513   0.84350   Biso      1.000     Cu          0.858217  
         H1        1.0000    0.75920   0.00000   0.00000   Biso      1.000     H          0.303191  
         H2        1.0000    0.75920   0.75920   0.00000   Biso      1.000     H          0.303863  
         H3        1.0000    0.70420   0.63200   0.51120   Biso      1.000     H          0.12064   
         H4        1.0000    0.46920   0.23460   0.04470   Biso      1.000     H          0.132984  
         H5        1.0000    0.19560   0.14330   0.99060   Biso      1.000     H          0.069861  
         H6        1.0000    0.90590   0.71880   0.10490   Biso      1.000     H          0.129938  
         H7        1.0000    0.94770   0.80440   0.99060   Biso      1.000     H          0.073365  
         H8        1.0000    0.00000   0.24080   0.00000   Biso      1.000     H          0.295957  
         H9        1.0000    0.53080   0.76540   0.95530   Biso      1.000     H          0.133314  
         H10       1.0000    0.28120   0.18710   0.10490   Biso      1.000     H          0.130432  
         H11       1.0000    0.36800   0.07220   0.51120   Biso      1.000     H          0.119622  
         H12       1.0000    0.76540   0.53080   0.04470   Biso      1.000     H          0.133829  
         H13       1.0000    0.23460   0.46920   0.95530   Biso      1.000     H          0.134034  
         H14       1.0000    0.92780   0.29580   0.51120   Biso      1.000     H          0.120642  
         H15       1.0000    0.81290   0.09410   0.10490   Biso      1.000     H          0.130196  
         H16       1.0000    0.85670   0.05230   0.99060   Biso      1.000     H          0.071575  
         H17       1.0000    0.76540   0.23460   0.04470   Biso      1.000     H          0.133403  
         H18       1.0000    0.23460   0.76540   0.95530   Biso      1.000     H          0.133614  
         H19       1.0000    0.24080   0.00000   0.00000   Biso      1.000     H          0.302528  
         H20       1.0000    0.29580   0.92780   0.48880   Biso      1.000     H          0.119562  
         H21       1.0000    0.24080   0.24080   0.00000   Biso      1.000     H          0.304588  
         H22       1.0000    0.05230   0.19560   0.00940   Biso      1.000     H          0.072013  
         H23       1.0000    0.71880   0.81290   0.89510   Biso      1.000     H          0.129884  
         H24       1.0000    0.80440   0.85670   0.00940   Biso      1.000     H          0.072471  
         H25       1.0000    0.81290   0.71880   0.10490   Biso      1.000     H          0.130896  
         H26       1.0000    0.92780   0.63200   0.51120   Biso      1.000     H          0.121018  
         H27       1.0000    0.63200   0.70420   0.48880   Biso      1.000     H          0.12085   
         H28       1.0000    0.71880   0.90590   0.89510   Biso      1.000     H          0.132175  
         H29       1.0000    0.80440   0.94770   0.00940   Biso      1.000     H          0.083644  
         H30       1.0000    0.09410   0.28120   0.89510   Biso      1.000     H          0.130199  
         H31       1.0000    0.94770   0.14330   0.99060   Biso      1.000     H          0.084069  
         H32       1.0000    0.90590   0.18710   0.10490   Biso      1.000     H          0.130991  
         H33       1.0000    0.70420   0.07220   0.51120   Biso      1.000     H          0.119563  
         H34       1.0000    0.63200   0.92780   0.48880   Biso      1.000     H          0.119548  
         H35       1.0000    0.14330   0.94770   0.00940   Biso      1.000     H          0.070808  
         H36       1.0000    0.09410   0.81290   0.89510   Biso      1.000     H          0.130449  
         H37       1.0000    0.05230   0.85670   0.00940   Biso      1.000     H          0.084012  
         H38       1.0000    0.18710   0.90590   0.89510   Biso      1.000     H          0.129541  
         H39       1.0000    0.07220   0.70420   0.48880   Biso      1.000     H          0.121172  
         H40       1.0000    0.19560   0.05230   0.99060   Biso      1.000     H          0.082224  
         H41       1.0000    0.28120   0.09410   0.10490   Biso      1.000     H          0.131489  
         H42       1.0000    0.36800   0.29580   0.51120   Biso      1.000     H          0.120253  
         H43       1.0000    0.07220   0.36800   0.48880   Biso      1.000     H          0.121483  
         H44       1.0000    0.18710   0.28120   0.89510   Biso      1.000     H          0.13065   
         H45       1.0000    0.14330   0.19560   0.00940   Biso      1.000     H          0.080768  
         H46       1.0000    0.29580   0.36800   0.48880   Biso      1.000     H          0.121119  
         H47       1.0000    0.00000   0.75920   0.00000   Biso      1.000     H          0.295969  
         H48       1.0000    0.85670   0.80440   0.99060   Biso      1.000     H          0.083436  
         O1        1.0000    0.37150   0.48120   0.01100   Biso      1.000     O          -0.55092  
         O2        1.0000    0.08570   0.29500   0.19100   Biso      1.000     O          -0.129227           
         O3        1.0000    0.41210   0.43840   0.74280   Biso      1.000     O          -0.535879           
         O4        1.0000    0.62850   0.51880   0.98900   Biso      1.000     O          -0.555339           
         O5        1.0000    0.97370   0.56160   0.25720   Biso      1.000     O          -0.534664           
         O6        1.0000    0.91430   0.20930   0.80900   Biso      1.000     O          -0.131973           
         O7        1.0000    0.62850   0.10970   0.98900   Biso      1.000     O          -0.552419           
         O8        1.0000    0.58790   0.02630   0.25720   Biso      1.000     O          -0.537865           
         O9        1.0000    0.29500   0.08570   0.80900   Biso      1.000     O          -0.13779  
         O10       1.0000    0.48120   0.37150   0.98900   Biso      1.000     O          -0.555625           
         O11       1.0000    0.79070   0.70500   0.80900   Biso      1.000     O          -0.132086           
         O12       1.0000    0.89030   0.51880   0.98900   Biso      1.000     O          -0.555695           
         O13       1.0000    0.56160   0.97370   0.74280   Biso      1.000     O          -0.536731           
         O14       1.0000    0.10970   0.62850   0.01100   Biso      1.000     O          -0.554635           
         O15       1.0000    0.58790   0.56160   0.25720   Biso      1.000     O          -0.530316           
         O16       1.0000    0.20930   0.29500   0.19100   Biso      1.000     O          -0.130533           
         O17       1.0000    0.10970   0.48120   0.01100   Biso      1.000     O          -0.555244           
         O18       1.0000    0.97370   0.41210   0.25720   Biso      1.000     O          -0.536672           
         O19       1.0000    0.89030   0.37150   0.98900   Biso      1.000     O          -0.555563           
         O20       1.0000    0.79070   0.08570   0.80900   Biso      1.000     O          -0.135095           
         O21       1.0000    0.02630   0.43840   0.74280   Biso      1.000     O          -0.537001           
         O22       1.0000    0.08570   0.79070   0.19100   Biso      1.000     O          -0.13069  
         O23       1.0000    0.37150   0.89030   0.01100   Biso      1.000     O          -0.553545           
         O24       1.0000    0.02630   0.58790   0.74280   Biso      1.000     O          -0.537336           
         O25       1.0000    0.41210   0.97370   0.74280   Biso      1.000     O          -0.537015           
         O26       1.0000    0.48120   0.10970   0.98900   Biso      1.000     O          -0.552335           
         O27       1.0000    0.29500   0.20930   0.80900   Biso      1.000     O          -0.137512           
         O28       1.0000    0.70500   0.91430   0.19100   Biso      1.000     O          -0.137713           
         O29       1.0000    0.51880   0.62850   0.01100   Biso      1.000     O          -0.550626           
         O30       1.0000    0.56160   0.58790   0.74280   Biso      1.000     O          -0.536763           
         O31       1.0000    0.70500   0.79070   0.19100   Biso      1.000     O          -0.137219           
         O32       1.0000    0.51880   0.89030   0.01100   Biso      1.000     O          -0.553654           
         O33       1.0000    0.91430   0.70500   0.80900   Biso      1.000     O          -0.131392           
         O34       1.0000    0.20930   0.91430   0.19100   Biso      1.000     O          -0.134138           
         O35       1.0000    0.43840   0.02630   0.25720   Biso      1.000     O          -0.537286           
         O36       1.0000    0.43840   0.41210   0.25720   Biso      1.000     O          -0.532278 