
##########################################################################
#               Crystallographic Information Format file
#               Produced by PyCifRW module
#
#  This is a CIF file.  CIF has been adopted by the International
#  Union of Crystallography as the standard for data archiving and
#  transmission.
#
#  For information on this file format, follow the CIF links at
#  http://www.iucr.org
##########################################################################

data_image0

_cell_length_a                          7.2421
_cell_length_b                          7.2666
_cell_length_c                          7.2696
_cell_angle_alpha                       90
_cell_angle_beta                        90
_cell_angle_gamma                       90
_symmetry_space_group_name_H-M          'P 1'
_symmetry_int_tables_number             1
loop_
  _symmetry_equiv_pos_as_xyz
         'x, y, z' 
loop_
  _atom_site_label
  _atom_site_occupancy
  _atom_site_fract_x
  _atom_site_fract_y
  _atom_site_fract_z
  _atom_site_thermal_displace_type
  _atom_site_B_iso_or_equiv
  _atom_site_type_symbol
  _atom_site_charge
         C1        1.0000    0.00000   0.67570   0.31200   Biso      1.000     C          0.035342  
         C2        1.0000    0.40310   0.00000   0.15440   Biso      1.000     C          0.051088999999999996          
         C3        1.0000    0.40310   0.00000   0.84560   Biso      1.000     C          0.051088999999999996          
         C4        1.0000    0.59690   0.00000   0.15440   Biso      1.000     C          0.051088999999999996          
         C5        1.0000    0.59690   0.00000   0.84560   Biso      1.000     C          0.051088  
         C6        1.0000    0.00000   0.32430   0.68800   Biso      1.000     C          0.035342  
         C7        1.0000    0.00000   0.67570   0.68800   Biso      1.000     C          0.035343  
         C8        1.0000    0.00000   0.32430   0.31200   Biso      1.000     C          0.035343  
         Fe1       1.0000    0.00000   0.00000   0.00000   Biso      1.000     Fe          0.418583  
         H1        1.0000    0.34060   0.00000   0.73390   Biso      1.000     H          0.121398  
         H2        1.0000    0.65940   0.00000   0.26610   Biso      1.000     H          0.121398  
         H3        1.0000    0.65940   0.00000   0.73390   Biso      1.000     H          0.121398  
         H4        1.0000    0.34060   0.00000   0.26610   Biso      1.000     H          0.121398  
         N1        1.0000    0.69270   0.00000   0.00000   Biso      1.000     N          -0.068866           
         N2        1.0000    0.00000   0.79490   0.79120   Biso      1.000     N          -0.305613           
         N3        1.0000    0.00000   0.20510   0.20880   Biso      1.000     N          -0.305612           
         N4        1.0000    0.00000   0.20510   0.79120   Biso      1.000     N          -0.30561  
         N5        1.0000    0.00000   0.79490   0.20880   Biso      1.000     N          -0.30561  
         N6        1.0000    0.30730   0.00000   0.00000   Biso      1.000     N          -0.068866           
         Ni1       1.0000    0.00000   0.50000   0.50000   Biso      1.000     Ni          0.110277 