
##########################################################################
#               Crystallographic Information Format file
#               Produced by PyCifRW module
#
#  This is a CIF file.  CIF has been adopted by the International
#  Union of Crystallography as the standard for data archiving and
#  transmission.
#
#  For information on this file format, follow the CIF links at
#  http://www.iucr.org
##########################################################################

data_image0

_cell_length_a                          7.028
_cell_length_b                          7.01
_cell_length_c                          6.725
_cell_angle_alpha                       90
_cell_angle_beta                        90
_cell_angle_gamma                       90
_symmetry_space_group_name_H-M          'P 1'
_symmetry_int_tables_number             1
loop_
  _symmetry_equiv_pos_as_xyz
         'x, y, z' 
loop_
  _atom_site_label
  _atom_site_occupancy
  _atom_site_fract_x
  _atom_site_fract_y
  _atom_site_fract_z
  _atom_site_thermal_displace_type
  _atom_site_B_iso_or_equiv
  _atom_site_type_symbol
  _atom_site_charge
         C1        1.0000    0.68650   0.68960   0.00000   Biso      1.000     C          0.0184    
         C2        1.0000    0.68650   0.31040   0.00000   Biso      1.000     C          0.0184    
         C3        1.0000    0.00000   0.16360   0.39780   Biso      1.000     C          0.050127  
         C4        1.0000    0.31350   0.68960   0.00000   Biso      1.000     C          0.018401  
         C5        1.0000    0.31350   0.31040   0.00000   Biso      1.000     C          0.018398  
         C6        1.0000    0.00000   0.83640   0.60220   Biso      1.000     C          0.050127  
         C7        1.0000    0.00000   0.83640   0.39780   Biso      1.000     C          0.050147  
         C8        1.0000    0.00000   0.16360   0.60220   Biso      1.000     C          0.050146  
         Fe1       1.0000    0.00000   0.00000   0.00000   Biso      1.000     Fe          0.464067  
         H1        1.0000    0.00000   0.28180   0.32890   Biso      1.000     H          0.122836  
         H2        1.0000    0.00000   0.71820   0.67110   Biso      1.000     H          0.122836  
         H3        1.0000    0.00000   0.28180   0.67110   Biso      1.000     H          0.122832  
         H4        1.0000    0.00000   0.71820   0.32890   Biso      1.000     H          0.122832  
         N1        1.0000    0.00000   0.00000   0.70690   Biso      1.000     N          -0.06496  
         N2        1.0000    0.80490   0.80310   0.00000   Biso      1.000     N          -0.302924           
         N3        1.0000    0.19510   0.19690   0.00000   Biso      1.000     N          -0.302923           
         N4        1.0000    0.19510   0.80310   0.00000   Biso      1.000     N          -0.302925           
         N5        1.0000    0.80490   0.19690   0.00000   Biso      1.000     N          -0.302925           
         N6        1.0000    0.00000   0.00000   0.29310   Biso      1.000     N          -0.064961           
         Ni1       1.0000    0.50000   0.50000   0.00000   Biso      1.000     Ni          0.112068 