
##########################################################################
#               Crystallographic Information Format file
#               Produced by PyCifRW module
#
#  This is a CIF file.  CIF has been adopted by the International
#  Union of Crystallography as the standard for data archiving and
#  transmission.
#
#  For information on this file format, follow the CIF links at
#  http://www.iucr.org
##########################################################################

data_image0

_cell_length_a                          7.1139
_cell_length_b                          6.9109
_cell_length_c                          6.7799
_cell_angle_alpha                       90
_cell_angle_beta                        90
_cell_angle_gamma                       90
_symmetry_space_group_name_H-M          'P 1'
_symmetry_int_tables_number             1
loop_
  _symmetry_equiv_pos_as_xyz
         'x, y, z' 
loop_
  _atom_site_label
  _atom_site_occupancy
  _atom_site_fract_x
  _atom_site_fract_y
  _atom_site_fract_z
  _atom_site_thermal_displace_type
  _atom_site_B_iso_or_equiv
  _atom_site_type_symbol
  _atom_site_charge
         C1        1.0000    0.31250   0.68890   0.00000   Biso      1.000     C          0.018465000000000002          
         C2        1.0000    0.31250   0.31110   0.00000   Biso      1.000     C          0.018466999999999997          
         C3        1.0000    0.00000   0.16410   0.60280   Biso      1.000     C          0.048301  
         C4        1.0000    0.68750   0.68890   0.00000   Biso      1.000     C          0.018466999999999997          
         C5        1.0000    0.68750   0.31110   0.00000   Biso      1.000     C          0.018468000000000002          
         C6        1.0000    0.00000   0.83590   0.39720   Biso      1.000     C          0.048301  
         C7        1.0000    0.00000   0.83590   0.60280   Biso      1.000     C          0.048303  
         C8        1.0000    0.00000   0.16410   0.39720   Biso      1.000     C          0.048303  
         Fe1       1.0000    0.00000   0.00000   0.00000   Biso      1.000     Fe          0.46371999999999997           
         H1        1.0000    0.00000   0.28430   0.67080   Biso      1.000     H          0.12209500000000001           
         H2        1.0000    0.00000   0.71570   0.32920   Biso      1.000     H          0.12209500000000001           
         H3        1.0000    0.00000   0.28430   0.32920   Biso      1.000     H          0.12209600000000001           
         H4        1.0000    0.00000   0.71570   0.67080   Biso      1.000     H          0.12209600000000001           
         N1        1.0000    0.00000   0.00000   0.29290   Biso      1.000     N          -0.061086           
         N2        1.0000    0.19480   0.80270   0.00000   Biso      1.000     N          -0.302105           
         N3        1.0000    0.80520   0.19730   0.00000   Biso      1.000     N          -0.302106           
         N4        1.0000    0.80520   0.80270   0.00000   Biso      1.000     N          -0.302105           
         N5        1.0000    0.19480   0.19730   0.00000   Biso      1.000     N          -0.302105           
         N6        1.0000    0.00000   0.00000   0.70710   Biso      1.000     N          -0.061086           
         Ni1       1.0000    0.50000   0.50000   0.00000   Biso      1.000     Ni          0.11141500000000001 