
##########################################################################
#               Crystallographic Information Format file
#               Produced by PyCifRW module
#
#  This is a CIF file.  CIF has been adopted by the International
#  Union of Crystallography as the standard for data archiving and
#  transmission.
#
#  For information on this file format, follow the CIF links at
#  http://www.iucr.org
##########################################################################

data_image0

_cell_length_a                          7.9137
_cell_length_b                          12.7304
_cell_length_c                          27.357
_cell_angle_alpha                       90
_cell_angle_beta                        90
_cell_angle_gamma                       90
_symmetry_space_group_name_H-M          'P 1'
_symmetry_int_tables_number             1
loop_
  _symmetry_equiv_pos_as_xyz
         'x, y, z' 
loop_
  _atom_site_label
  _atom_site_occupancy
  _atom_site_fract_x
  _atom_site_fract_y
  _atom_site_fract_z
  _atom_site_thermal_displace_type
  _atom_site_B_iso_or_equiv
  _atom_site_type_symbol
  _atom_site_charge
         C1        1.0000    0.28830   0.82120   0.78240   Biso      1.000     C          0.220711  
         C2        1.0000    0.45990   0.65030   0.62350   Biso      1.000     C          -0.238082           
         C3        1.0000    0.81520   0.79270   0.77540   Biso      1.000     C          -0.501603           
         C4        1.0000    0.95010   0.41160   0.38890   Biso      1.000     C          -0.082664           
         C5        1.0000    0.02080   0.25120   0.14320   Biso      1.000     C          -0.10164  
         C6        1.0000    0.29620   0.36100   0.30000   Biso      1.000     C          -0.06471  
         C7        1.0000    0.13600   0.09790   0.25390   Biso      1.000     C          -0.223518           
         C8        1.0000    0.54210   0.46390   0.32530   Biso      1.000     C          -0.131575           
         C9        1.0000    0.07880   0.22670   0.19020   Biso      1.000     C          0.089414  
         C10       1.0000    0.03770   0.36970   0.35130   Biso      1.000     C          -0.146706           
         C11       1.0000    0.17140   0.40980   0.19910   Biso      1.000     C          -0.13619  
         C12       1.0000    0.28630   0.47030   0.37380   Biso      1.000     C          0.105298  
         C13       1.0000    0.45990   0.39640   0.29190   Biso      1.000     C          0.184845  
         C14       1.0000    0.19090   0.51390   0.41250   Biso      1.000     C          -0.135599           
         C15       1.0000    0.06860   0.12570   0.20900   Biso      1.000     C          -0.161557           
         C16       1.0000    0.21860   0.28100   0.26690   Biso      1.000     C          -0.090946           
         C17       1.0000    0.21170   0.17880   0.28240   Biso      1.000     C          0.220707  
         C18       1.0000    0.15710   0.30680   0.21900   Biso      1.000     C          0.047391  
         C19       1.0000    0.29360   0.60080   0.84080   Biso      1.000     C          0.041818  
         C20       1.0000    0.02450   0.48880   0.42000   Biso      1.000     C          -0.189495           
         C21       1.0000    0.06950   0.94130   0.88650   Biso      1.000     C          -0.464798           
         C22       1.0000    0.79860   0.68370   0.75370   Biso      1.000     C          0.09837   
         C23       1.0000    0.47920   0.74880   0.64320   Biso      1.000     C          -0.101668           
         C24       1.0000    0.20380   0.63900   0.80000   Biso      1.000     C          -0.064689           
         C25       1.0000    0.36400   0.90210   0.75390   Biso      1.000     C          -0.223536           
         C26       1.0000    0.95790   0.53610   0.82530   Biso      1.000     C          -0.131565           
         C27       1.0000    0.42120   0.77330   0.69020   Biso      1.000     C          0.089411  
         C28       1.0000    0.46230   0.63030   0.85130   Biso      1.000     C          -0.146698           
         C29       1.0000    0.32860   0.59020   0.69910   Biso      1.000     C          -0.136211           
         C30       1.0000    0.21370   0.52970   0.87380   Biso      1.000     C          0.105281  
         C31       1.0000    0.04010   0.60360   0.79190   Biso      1.000     C          0.184853  
         C32       1.0000    0.30910   0.48610   0.91250   Biso      1.000     C          -0.135618           
         C33       1.0000    0.43140   0.87430   0.70900   Biso      1.000     C          -0.161559           
         C34       1.0000    0.28140   0.71900   0.76690   Biso      1.000     C          -0.090975           
         C35       1.0000    0.78140   0.78100   0.23310   Biso      1.000     C          -0.090971           
         C36       1.0000    0.34290   0.69320   0.71900   Biso      1.000     C          0.047399  
         C37       1.0000    0.47550   0.51120   0.92000   Biso      1.000     C          -0.18955  
         C38       1.0000    0.38290   0.56930   0.65240   Biso      1.000     C          -0.098207           
         C39       1.0000    0.04400   0.50230   0.86540   Biso      1.000     C          -0.191031           
         C40       1.0000    0.18050   0.94920   0.84060   Biso      1.000     C          0.030773  
         C41       1.0000    0.11710   0.43070   0.15240   Biso      1.000     C          -0.098198           
         C42       1.0000    0.45600   0.49770   0.36540   Biso      1.000     C          -0.190995           
         C43       1.0000    0.70140   0.31630   0.25370   Biso      1.000     C          0.098378  
         C44       1.0000    0.95600   0.00230   0.63460   Biso      1.000     C          -0.191041           
         C45       1.0000    0.20140   0.18370   0.74630   Biso      1.000     C          0.098369  
         C46       1.0000    0.81950   0.44920   0.65940   Biso      1.000     C          0.030767  
         C47       1.0000    0.93050   0.44130   0.61350   Biso      1.000     C          -0.464818           
         C48       1.0000    0.70640   0.10080   0.65920   Biso      1.000     C          0.041815  
         C49       1.0000    0.54010   0.15030   0.87650   Biso      1.000     C          -0.238114           
         C50       1.0000    0.18480   0.29270   0.72460   Biso      1.000     C          -0.501607           
         C51       1.0000    0.04990   0.91160   0.11110   Biso      1.000     C          -0.082675           
         C52       1.0000    0.97920   0.75120   0.35680   Biso      1.000     C          -0.10167  
         C53       1.0000    0.70380   0.86100   0.20000   Biso      1.000     C          -0.064696           
         C54       1.0000    0.86400   0.59790   0.24610   Biso      1.000     C          -0.223557           
         C55       1.0000    0.45790   0.96390   0.17470   Biso      1.000     C          -0.131578           
         C56       1.0000    0.92120   0.72670   0.30980   Biso      1.000     C          0.089412  
         C57       1.0000    0.96230   0.86970   0.14870   Biso      1.000     C          -0.1467   
         C58       1.0000    0.82860   0.90980   0.30090   Biso      1.000     C          -0.136231           
         C59       1.0000    0.71370   0.97030   0.12620   Biso      1.000     C          0.105285  
         C60       1.0000    0.54010   0.89640   0.20810   Biso      1.000     C          0.184838  
         C61       1.0000    0.61710   0.06930   0.84760   Biso      1.000     C          -0.09822  
         C62       1.0000    0.52450   0.01120   0.58000   Biso      1.000     C          -0.189556           
         C63       1.0000    0.65710   0.19320   0.78100   Biso      1.000     C          0.047386  
         C64       1.0000    0.71170   0.32120   0.71760   Biso      1.000     C          0.220696  
         C65       1.0000    0.31950   0.05080   0.34060   Biso      1.000     C          0.030769  
         C66       1.0000    0.43050   0.05870   0.38650   Biso      1.000     C          -0.464817           
         C67       1.0000    0.20640   0.39920   0.34080   Biso      1.000     C          0.041818  
         C68       1.0000    0.04010   0.34970   0.12350   Biso      1.000     C          -0.238061           
         C69       1.0000    0.68480   0.20730   0.27540   Biso      1.000     C          -0.501611           
         C70       1.0000    0.45010   0.08840   0.61110   Biso      1.000     C          -0.082693           
         C71       1.0000    0.52080   0.24880   0.85680   Biso      1.000     C          -0.101645           
         C72       1.0000    0.79620   0.13900   0.70000   Biso      1.000     C          -0.064701           
         C73       1.0000    0.54990   0.58840   0.88890   Biso      1.000     C          -0.082665           
         C74       1.0000    0.63600   0.40210   0.74610   Biso      1.000     C          -0.223524           
         C75       1.0000    0.57880   0.27330   0.80980   Biso      1.000     C          0.089397  
         C76       1.0000    0.53770   0.13030   0.64870   Biso      1.000     C          -0.146696           
         C77       1.0000    0.67140   0.09020   0.80090   Biso      1.000     C          -0.136204           
         C78       1.0000    0.78630   0.02970   0.62620   Biso      1.000     C          0.105282  
         C79       1.0000    0.95990   0.10360   0.70810   Biso      1.000     C          0.184857  
         C80       1.0000    0.69090   0.98610   0.58750   Biso      1.000     C          -0.135625           
         C81       1.0000    0.56860   0.37430   0.79100   Biso      1.000     C          -0.161577           
         C82       1.0000    0.71860   0.21900   0.73310   Biso      1.000     C          -0.090963           
         C83       1.0000    0.04210   0.03610   0.67470   Biso      1.000     C          -0.131566           
         C84       1.0000    0.80910   0.01390   0.08750   Biso      1.000     C          -0.135606           
         C85       1.0000    0.93140   0.62570   0.29100   Biso      1.000     C          -0.161569           
         C86       1.0000    0.97550   0.98880   0.08000   Biso      1.000     C          -0.189522           
         C87       1.0000    0.31520   0.70730   0.22460   Biso      1.000     C          -0.501603           
         C88       1.0000    0.95990   0.84970   0.37650   Biso      1.000     C          -0.238061           
         C89       1.0000    0.79360   0.89920   0.15920   Biso      1.000     C          0.04181   
         C90       1.0000    0.56950   0.55870   0.11350   Biso      1.000     C          -0.464802           
         C91       1.0000    0.68050   0.55080   0.15940   Biso      1.000     C          0.030769  
         C92       1.0000    0.29860   0.81630   0.24630   Biso      1.000     C          0.098378  
         C93       1.0000    0.54400   0.99770   0.13460   Biso      1.000     C          -0.191016           
         C94       1.0000    0.88290   0.93070   0.34760   Biso      1.000     C          -0.098222           
         C95       1.0000    0.84290   0.80680   0.28100   Biso      1.000     C          0.047396  
         C96       1.0000    0.78830   0.67880   0.21760   Biso      1.000     C          0.220708  
         H1        1.0000    0.53500   0.09630   0.37850   Biso      1.000     H          0.142049  
         H2        1.0000    0.45810   0.98800   0.39810   Biso      1.000     H          0.160523  
         H3        1.0000    0.36940   0.09690   0.41200   Biso      1.000     H          0.158433  
         H4        1.0000    0.27400   0.80000   0.28800   Biso      1.000     H          0.0695    
         H5        1.0000    0.46700   0.47000   0.55100   Biso      1.000     H          0.457064  
         H6        1.0000    0.61970   0.16260   0.25310   Biso      1.000     H          0.160006  
         H7        1.0000    0.73900   0.53000   0.01300   Biso      1.000     H          0.463124  
         H8        1.0000    0.79740   0.17710   0.28020   Biso      1.000     H          0.153733  
         H9        1.0000    0.22600   0.46300   0.21760   Biso      1.000     H          0.115715  
         H10       1.0000    0.99100   0.31400   0.33140   Biso      1.000     H          0.101678  
         H11       1.0000    0.72600   0.30000   0.21200   Biso      1.000     H          0.069531  
         H12       1.0000    0.49200   0.53800   0.38300   Biso      1.000     H          0.145189  
         H13       1.0000    0.03100   0.07900   0.19400   Biso      1.000     H          0.126698  
         H14       1.0000    0.39700   0.96300   0.76600   Biso      1.000     H          0.125732  
         H15       1.0000    0.79200   0.36400   0.27600   Biso      1.000     H          0.050525  
         H16       1.0000    0.83900   0.39000   0.39400   Biso      1.000     H          0.116674  
         H17       1.0000    0.62640   0.21170   0.30700   Biso      1.000     H          0.150984  
         H18       1.0000    0.25600   0.43500   0.93000   Biso      1.000     H          0.126698  
         H19       1.0000    0.66100   0.61000   0.89400   Biso      1.000     H          0.116658  
         H20       1.0000    0.12200   0.97300   0.81100   Biso      1.000     H          0.099773  
         H21       1.0000    0.13060   0.90310   0.91200   Biso      1.000     H          0.158397  
         H22       1.0000    0.04190   0.01200   0.89810   Biso      1.000     H          0.160502  
         H23       1.0000    0.96500   0.90370   0.87850   Biso      1.000     H          0.142034  
         H24       1.0000    0.88030   0.83740   0.75310   Biso      1.000     H          0.159976  
         H25       1.0000    0.70260   0.82290   0.78020   Biso      1.000     H          0.153719  
         H26       1.0000    0.87360   0.78830   0.80700   Biso      1.000     H          0.150969  
         H27       1.0000    0.50900   0.68600   0.83140   Biso      1.000     H          0.101669  
         H28       1.0000    0.28500   0.97100   0.85400   Biso      1.000     H          0.088035  
         H29       1.0000    0.77400   0.70000   0.71200   Biso      1.000     H          0.069503  
         H30       1.0000    0.46900   0.92100   0.69400   Biso      1.000     H          0.126679  
         H31       1.0000    0.27400   0.53700   0.71760   Biso      1.000     H          0.115721  
         H32       1.0000    0.70800   0.63600   0.77600   Biso      1.000     H          0.050522  
         H33       1.0000    0.13600   0.50000   0.14000   Biso      1.000     H          0.104852  
         H34       1.0000    0.36400   0.50000   0.64000   Biso      1.000     H          0.104824  
         H35       1.0000    0.82300   0.51000   0.81300   Biso      1.000     H          0.096774  
         H36       1.0000    0.53000   0.80700   0.62500   Biso      1.000     H          0.112948  
         H37       1.0000    0.00800   0.46200   0.88300   Biso      1.000     H          0.14519   
         H38       1.0000    0.00900   0.81400   0.16860   Biso      1.000     H          0.101664  
         H39       1.0000    0.67700   0.49000   0.31300   Biso      1.000     H          0.096778  
         H40       1.0000    0.37800   0.02700   0.31100   Biso      1.000     H          0.099789  
         H41       1.0000    0.53300   0.97000   0.94900   Biso      1.000     H          0.45704   
         H42       1.0000    0.26100   0.03000   0.48700   Biso      1.000     H          0.463143  
         H43       1.0000    0.63060   0.59690   0.08800   Biso      1.000     H          0.158428  
         H44       1.0000    0.54190   0.48800   0.10190   Biso      1.000     H          0.160513  
         H45       1.0000    0.46500   0.59630   0.12150   Biso      1.000     H          0.142039  
         H46       1.0000    0.38030   0.66260   0.24690   Biso      1.000     H          0.159977  
         H47       1.0000    0.20260   0.67710   0.21980   Biso      1.000     H          0.153717  
         H48       1.0000    0.23900   0.97000   0.98700   Biso      1.000     H          0.463145  
         H49       1.0000    0.96700   0.03000   0.44900   Biso      1.000     H          0.457065  
         H50       1.0000    0.89700   0.53700   0.23400   Biso      1.000     H          0.125719  
         H51       1.0000    0.75600   0.06500   0.07000   Biso      1.000     H          0.126716  
         H52       1.0000    0.78500   0.52900   0.14600   Biso      1.000     H          0.088035  
         H53       1.0000    0.62200   0.52700   0.18900   Biso      1.000     H          0.099764  
         H54       1.0000    0.03000   0.69300   0.37500   Biso      1.000     H          0.112952  
         H55       1.0000    0.32300   0.99000   0.18700   Biso      1.000     H          0.096762  
         H56       1.0000    0.37360   0.71170   0.19300   Biso      1.000     H          0.150975  
         H57       1.0000    0.16100   0.89000   0.10600   Biso      1.000     H          0.11667   
         H58       1.0000    0.20800   0.86400   0.22400   Biso      1.000     H          0.050516  
         H59       1.0000    0.77400   0.96300   0.28240   Biso      1.000     H          0.115708  
         H60       1.0000    0.96900   0.57900   0.30600   Biso      1.000     H          0.126673  
         H61       1.0000    0.50800   0.03800   0.11700   Biso      1.000     H          0.145191  
         H62       1.0000    0.60300   0.46300   0.73400   Biso      1.000     H          0.125706  
         H63       1.0000    0.97000   0.19300   0.12500   Biso      1.000     H          0.112973  
         H64       1.0000    0.74400   0.93500   0.57000   Biso      1.000     H          0.126685  
         H65       1.0000    0.87800   0.47300   0.68900   Biso      1.000     H          0.099773  
         H66       1.0000    0.21500   0.02900   0.35400   Biso      1.000     H          0.088044  
         H67       1.0000    0.24400   0.56500   0.43000   Biso      1.000     H          0.126712  
         H68       1.0000    0.10300   0.03700   0.26600   Biso      1.000     H          0.12573   
         H69       1.0000    0.03300   0.53000   0.05100   Biso      1.000     H          0.45706   
         H70       1.0000    0.76100   0.47000   0.51300   Biso      1.000     H          0.463169  
         H71       1.0000    0.86940   0.40310   0.58800   Biso      1.000     H          0.158385  
         H72       1.0000    0.95810   0.51200   0.60190   Biso      1.000     H          0.160484  
         H73       1.0000    0.03500   0.40370   0.62150   Biso      1.000     H          0.142032  
         H74       1.0000    0.11970   0.33740   0.74690   Biso      1.000     H          0.15997   
         H75       1.0000    0.29740   0.32290   0.71980   Biso      1.000     H          0.153711  
         H76       1.0000    0.12640   0.28830   0.69300   Biso      1.000     H          0.150957  
         H77       1.0000    0.49100   0.18600   0.66860   Biso      1.000     H          0.101679  
         H78       1.0000    0.22600   0.20000   0.78800   Biso      1.000     H          0.069499  
         H79       1.0000    0.99200   0.96200   0.61700   Biso      1.000     H          0.145171  
         H80       1.0000    0.53100   0.42100   0.80600   Biso      1.000     H          0.126674  
         H81       1.0000    0.72600   0.03700   0.78240   Biso      1.000     H          0.115696  
         H82       1.0000    0.29200   0.13600   0.72400   Biso      1.000     H          0.050512  
         H83       1.0000    0.33900   0.11000   0.60600   Biso      1.000     H          0.116657  
         H84       1.0000    0.63600   0.00000   0.86000   Biso      1.000     H          0.10481   
         H85       1.0000    0.17700   0.01000   0.68700   Biso      1.000     H          0.096768  
         H86       1.0000    0.47000   0.30700   0.87500   Biso      1.000     H          0.112935  
         H87       1.0000    0.71500   0.47100   0.64600   Biso      1.000     H          0.088018  
         H88       1.0000    0.86400   0.00000   0.36000   Biso      1.000     H          0.104826  
         Mn1       1.0000    0.34445   0.25753   0.02287   Biso      1.000     Mn          1.182334  
         Mn2       1.0000    0.15555   0.74247   0.52287   Biso      1.000     Mn          1.182334  
         Mn3       1.0000    0.84445   0.24247   0.97713   Biso      1.000     Mn          1.182332  
         Mn4       1.0000    0.65555   0.75753   0.47713   Biso      1.000     Mn          1.182506  
         O1        1.0000    0.77380   0.62270   0.44656   Biso      1.000     O          -0.795776           
         O2        1.0000    0.94740   0.49320   0.05592   Biso      1.000     O          -0.668009           
         O3        1.0000    0.03860   0.13410   0.75124   Biso      1.000     O          -0.249173           
         O4        1.0000    0.53170   0.89820   0.49782   Biso      1.000     O          -0.795558           
         O5        1.0000    0.32060   0.04620   0.50706   Biso      1.000     O          -0.738127           
         O6        1.0000    0.78160   0.34100   0.67299   Biso      1.000     O          -0.225509           
         O7        1.0000    0.62360   0.15570   0.97297   Biso      1.000     O          -0.799953           
         O8        1.0000    0.32270   0.18680   0.95058   Biso      1.000     O          -0.762364           
         O9        1.0000    0.82060   0.45380   0.49294   Biso      1.000     O          -0.73812  
         O10       1.0000    0.82270   0.31320   0.04942   Biso      1.000     O          -0.762374           
         O11       1.0000    0.44740   0.00680   0.94408   Biso      1.000     O          -0.668029           
         O12       1.0000    0.46140   0.86590   0.25124   Biso      1.000     O          -0.249183           
         O13       1.0000    0.96830   0.10180   0.99782   Biso      1.000     O          -0.795499           
         O14       1.0000    0.17940   0.95380   0.00706   Biso      1.000     O          -0.738094           
         O15       1.0000    0.71840   0.65900   0.17299   Biso      1.000     O          -0.225485           
         O16       1.0000    0.87640   0.84430   0.47297   Biso      1.000     O          -0.799922           
         O17       1.0000    0.17730   0.81320   0.45058   Biso      1.000     O          -0.76239  
         O18       1.0000    0.27380   0.87730   0.55344   Biso      1.000     O          -0.795744           
         O19       1.0000    0.12360   0.34430   0.02703   Biso      1.000     O          -0.799897           
         O20       1.0000    0.05260   0.99320   0.44408   Biso      1.000     O          -0.668038           
         O21       1.0000    0.22620   0.12270   0.05344   Biso      1.000     O          -0.79576  
         O22       1.0000    0.96140   0.63410   0.74876   Biso      1.000     O          -0.249175           
         O23       1.0000    0.28160   0.15900   0.32701   Biso      1.000     O          -0.225472           
         O24       1.0000    0.67940   0.54620   0.99294   Biso      1.000     O          -0.7381   
         O25       1.0000    0.21840   0.84100   0.82701   Biso      1.000     O          -0.225494           
         O26       1.0000    0.37640   0.65570   0.52703   Biso      1.000     O          -0.799975           
         O27       1.0000    0.46830   0.39820   0.00218   Biso      1.000     O          -0.795526           
         O28       1.0000    0.72620   0.37730   0.94656   Biso      1.000     O          -0.795742           
         O29       1.0000    0.55260   0.50680   0.55592   Biso      1.000     O          -0.668047           
         O30       1.0000    0.53860   0.36590   0.24876   Biso      1.000     O          -0.249154           
         O31       1.0000    0.03170   0.60180   0.50218   Biso      1.000     O          -0.795508           
         O32       1.0000    0.67730   0.68680   0.54942   Biso      1.000     O          -0.762367           
         P1        1.0000    0.59360   0.44848   0.96763   Biso      1.000     P          1.361711  
         P2        1.0000    0.51730   0.62809   0.56103   Biso      1.000     P          1.303597  
         P3        1.0000    0.90640   0.55152   0.46763   Biso      1.000     P          1.361749  
         P4        1.0000    0.98270   0.37191   0.06103   Biso      1.000     P          1.303545  
         P5        1.0000    0.40640   0.94848   0.53237   Biso      1.000     P          1.36176   
         P6        1.0000    0.48270   0.12809   0.93897   Biso      1.000     P          1.303559  
         P7        1.0000    0.09360   0.05152   0.03237   Biso      1.000     P          1.361708  
         P8        1.0000    0.01730   0.87191   0.43897   Biso      1.000     P          1.303575 