
##########################################################################
#               Crystallographic Information Format file
#               Produced by PyCifRW module
#
#  This is a CIF file.  CIF has been adopted by the International
#  Union of Crystallography as the standard for data archiving and
#  transmission.
#
#  For information on this file format, follow the CIF links at
#  http://www.iucr.org
##########################################################################

data_image0

_cell_length_a                          6.929
_cell_length_b                          8.185
_cell_length_c                          10.4415
_cell_angle_alpha                       108.751
_cell_angle_beta                        109.378
_cell_angle_gamma                       90
_symmetry_space_group_name_H-M          'P 1'
_symmetry_int_tables_number             1
loop_
  _symmetry_equiv_pos_as_xyz
         'x, y, z' 
loop_
  _atom_site_label
  _atom_site_occupancy
  _atom_site_fract_x
  _atom_site_fract_y
  _atom_site_fract_z
  _atom_site_thermal_displace_type
  _atom_site_B_iso_or_equiv
  _atom_site_type_symbol
  _atom_site_charge
         C1        1.0000    0.14760   0.56000   0.19340   Biso      1.000     C          -0.25497  
         C2        1.0000    0.04580   0.06000   0.19340   Biso      1.000     C          -0.25402399999999997          
         C3        1.0000    0.18370   0.18030   0.33640   Biso      1.000     C          0.654174  
         C4        1.0000    0.00370   0.55830   0.07080   Biso      1.000     C          -0.017882           
         C5        1.0000    0.85240   0.44000   0.80660   Biso      1.000     C          -0.25497  
         C6        1.0000    0.15270   0.68030   0.33640   Biso      1.000     C          0.655362  
         C7        1.0000    0.93290   0.94170   0.92920   Biso      1.000     C          -0.019131           
         C8        1.0000    0.95420   0.94000   0.80660   Biso      1.000     C          -0.25399499999999997          
         C9        1.0000    0.81630   0.81970   0.66360   Biso      1.000     C          0.6541710000000001  
         C10       1.0000    0.84730   0.31970   0.66360   Biso      1.000     C          0.655361  
         C11       1.0000    0.99630   0.44170   0.92920   Biso      1.000     C          -0.017882           
         C12       1.0000    0.06710   0.05830   0.07080   Biso      1.000     C          -0.019099           
         H1        1.0000    0.74150   0.51180   0.80480   Biso      1.000     H          0.139958  
         H2        1.0000    0.17940   0.14830   0.07380   Biso      1.000     H          0.109021  
         H3        1.0000    0.93670   0.98820   0.19520   Biso      1.000     H          0.139744  
         H4        1.0000    0.89440   0.64830   0.07380   Biso      1.000     H          0.10838199999999999           
         H5        1.0000    0.25850   0.48820   0.19520   Biso      1.000     H          0.139957  
         H6        1.0000    0.82060   0.85170   0.92620   Biso      1.000     H          0.109023  
         H7        1.0000    0.06330   0.01180   0.80480   Biso      1.000     H          0.139742  
         H8        1.0000    0.10560   0.35170   0.92620   Biso      1.000     H          0.10838099999999999           
         Ni1       1.0000    0.00000   0.00000   0.50000   Biso      1.000     Ni          0.8085060000000001  
         Ni2       1.0000    0.50000   0.50000   0.50000   Biso      1.000     Ni          0.808584  
         O1        1.0000    0.83887   0.82870   0.55034   Biso      1.000     O          -0.5264949999999999           
         O2        1.0000    0.68250   0.71310   0.66060   Biso      1.000     O          -0.5075810000000001           
         O3        1.0000    0.28853   0.67130   0.44966   Biso      1.000     O          -0.527108           
         O4        1.0000    0.02190   0.78690   0.33940   Biso      1.000     O          -0.5080210000000001           
         O5        1.0000    0.16113   0.17130   0.44966   Biso      1.000     O          -0.5264949999999999           
         O6        1.0000    0.31750   0.28690   0.33940   Biso      1.000     O          -0.5075810000000001           
         O7        1.0000    0.71147   0.32870   0.55034   Biso      1.000     O          -0.527108           
         O8        1.0000    0.97810   0.21310   0.66060   Biso      1.000     O          -0.5080210000000001 