
##########################################################################
#               Crystallographic Information Format file
#               Produced by PyCifRW module
#
#  This is a CIF file.  CIF has been adopted by the International
#  Union of Crystallography as the standard for data archiving and
#  transmission.
#
#  For information on this file format, follow the CIF links at
#  http://www.iucr.org
##########################################################################

data_image0

_cell_length_a                          7.0368
_cell_length_b                          8.216
_cell_length_c                          10.4897
_cell_angle_alpha                       108.859
_cell_angle_beta                        109.598
_cell_angle_gamma                       90
_symmetry_space_group_name_H-M          'P 1'
_symmetry_int_tables_number             1
loop_
  _symmetry_equiv_pos_as_xyz
         'x, y, z' 
loop_
  _atom_site_label
  _atom_site_occupancy
  _atom_site_fract_x
  _atom_site_fract_y
  _atom_site_fract_z
  _atom_site_thermal_displace_type
  _atom_site_B_iso_or_equiv
  _atom_site_type_symbol
  _atom_site_charge
         C1        1.0000    0.14583   0.56022   0.19326   Biso      1.000     C          -0.252732           
         C2        1.0000    0.99498   0.44283   0.92976   Biso      1.000     C          -0.022735           
         C3        1.0000    0.85417   0.43978   0.80674   Biso      1.000     C          -0.252693           
         C4        1.0000    0.84867   0.32004   0.66434   Biso      1.000     C          0.6740430000000001  
         C5        1.0000    0.06522   0.05717   0.07024   Biso      1.000     C          -0.023436000000000002         
         C6        1.0000    0.04743   0.06022   0.19326   Biso      1.000     C          -0.25061  
         C7        1.0000    0.18433   0.17996   0.33566   Biso      1.000     C          0.6707810000000001  
         C8        1.0000    0.00502   0.55717   0.07024   Biso      1.000     C          -0.022688999999999997         
         C9        1.0000    0.15133   0.67996   0.33566   Biso      1.000     C          0.674046  
         C10       1.0000    0.93478   0.94283   0.92976   Biso      1.000     C          -0.023437           
         C11       1.0000    0.81567   0.82004   0.66434   Biso      1.000     C          0.670782  
         C12       1.0000    0.95257   0.93978   0.80674   Biso      1.000     C          -0.25061100000000003          
         Co1       1.0000    0.00000   0.00000   0.50000   Biso      1.000     Co          1.029799  
         Co2       1.0000    0.50000   0.50000   0.50000   Biso      1.000     Co          1.0283280000000001  
         H1        1.0000    0.10000   0.36900   0.92600   Biso      1.000     H          0.11228800000000001           
         H2        1.0000    0.05630   0.01300   0.80660   Biso      1.000     H          0.132213  
         H3        1.0000    0.82600   0.86900   0.92600   Biso      1.000     H          0.112594  
         H4        1.0000    0.24970   0.48700   0.19340   Biso      1.000     H          0.132348  
         H5        1.0000    0.75030   0.51300   0.80660   Biso      1.000     H          0.13234500000000002           
         H6        1.0000    0.94370   0.98700   0.19340   Biso      1.000     H          0.132212  
         H7        1.0000    0.17400   0.13100   0.07400   Biso      1.000     H          0.112594  
         H8        1.0000    0.90000   0.63100   0.07400   Biso      1.000     H          0.112285  
         O1        1.0000    0.71094   0.32725   0.55222   Biso      1.000     O          -0.5954229999999999           
         O2        1.0000    0.84128   0.82725   0.55222   Biso      1.000     O          -0.591303           
         O3        1.0000    0.68230   0.71660   0.66218   Biso      1.000     O          -0.563104           
         O4        1.0000    0.28906   0.67275   0.44778   Biso      1.000     O          -0.5954229999999999           
         O5        1.0000    0.02012   0.78340   0.33782   Biso      1.000     O          -0.564028           
         O6        1.0000    0.15872   0.17275   0.44778   Biso      1.000     O          -0.591302           
         O7        1.0000    0.31770   0.28340   0.33782   Biso      1.000     O          -0.563104           
         O8        1.0000    0.97988   0.21660   0.66218   Biso      1.000     O          -0.564028 