
##########################################################################
#               Crystallographic Information Format file
#               Produced by PyCifRW module
#
#  This is a CIF file.  CIF has been adopted by the International
#  Union of Crystallography as the standard for data archiving and
#  transmission.
#
#  For information on this file format, follow the CIF links at
#  http://www.iucr.org
##########################################################################

data_image0

_cell_length_a                          9.966
_cell_length_b                          9.966
_cell_length_c                          20.472
_cell_angle_alpha                       90
_cell_angle_beta                        90
_cell_angle_gamma                       90
_symmetry_space_group_name_H-M          'P 1'
_symmetry_int_tables_number             1
loop_
  _symmetry_equiv_pos_as_xyz
         'x, y, z' 
loop_
  _atom_site_label
  _atom_site_occupancy
  _atom_site_fract_x
  _atom_site_fract_y
  _atom_site_fract_z
  _atom_site_thermal_displace_type
  _atom_site_B_iso_or_equiv
  _atom_site_type_symbol
  _atom_site_charge
         C1        1.0000    0.89010   0.68900   0.44780   Biso      1.000     C          -0.132126           
         C2        1.0000    0.87080   0.72370   0.58120   Biso      1.000     C          -0.078288           
         C3        1.0000    0.88250   0.59540   0.55560   Biso      1.000     C          -0.095338           
         C4        1.0000    0.89170   0.57810   0.48930   Biso      1.000     C          -0.014157           
         C5        1.0000    0.18250   0.87630   0.22290   Biso      1.000     C          -0.033705           
         C6        1.0000    0.87630   0.81750   0.47290   Biso      1.000     C          -0.033704000000000005         
         C7        1.0000    0.63580   0.22940   0.36710   Biso      1.000     C          0.623838  
         C8        1.0000    0.13790   0.19920   0.35540   Biso      1.000     C          0.591631  
         C9        1.0000    0.27810   0.21590   0.25360   Biso      1.000     C          -0.103744           
         C10       1.0000    0.39910   0.22800   0.22250   Biso      1.000     C          -0.08960900000000001          
         C11       1.0000    0.51680   0.23380   0.25900   Biso      1.000     C          -0.093454           
         C12       1.0000    0.50940   0.22900   0.32650   Biso      1.000     C          -0.029291           
         C13       1.0000    0.38790   0.21960   0.35790   Biso      1.000     C          -0.12428199999999999          
         C14       1.0000    0.27100   0.21170   0.32110   Biso      1.000     C          -0.02493  
         C15       1.0000    0.09560   0.56110   0.96230   Biso      1.000     C          0.591074  
         C16       1.0000    0.12480   0.06470   0.92760   Biso      1.000     C          0.624686  
         C17       1.0000    0.13340   0.16400   0.03980   Biso      1.000     C          -0.10693299999999999          
         C18       1.0000    0.12920   0.27630   0.08120   Biso      1.000     C          -0.078287           
         C19       1.0000    0.11750   0.40460   0.05560   Biso      1.000     C          -0.095337           
         C20       1.0000    0.10830   0.42190   0.98930   Biso      1.000     C          -0.014157           
         C21       1.0000    0.10990   0.31100   0.94780   Biso      1.000     C          -0.132129           
         C22       1.0000    0.12370   0.18250   0.97290   Biso      1.000     C          -0.033701999999999996         
         C23       1.0000    0.86660   0.83600   0.53980   Biso      1.000     C          -0.10693  
         C24       1.0000    0.36420   0.77060   0.86710   Biso      1.000     C          0.623841  
         C25       1.0000    0.87520   0.93530   0.42760   Biso      1.000     C          0.624688  
         C26       1.0000    0.21170   0.72900   0.57110   Biso      1.000     C          -0.024934           
         C27       1.0000    0.78410   0.27810   0.00360   Biso      1.000     C          -0.103743           
         C28       1.0000    0.77200   0.39910   0.97250   Biso      1.000     C          -0.089607           
         C29       1.0000    0.76620   0.51680   0.00900   Biso      1.000     C          -0.093455           
         C30       1.0000    0.77100   0.50940   0.07650   Biso      1.000     C          -0.029293           
         C31       1.0000    0.78040   0.38790   0.10790   Biso      1.000     C          -0.124278           
         C32       1.0000    0.78830   0.27100   0.07110   Biso      1.000     C          -0.02493  
         C33       1.0000    0.43890   0.09560   0.71230   Biso      1.000     C          0.591074  
         C34       1.0000    0.93530   0.12480   0.67760   Biso      1.000     C          0.624686  
         C35       1.0000    0.83600   0.13340   0.78980   Biso      1.000     C          -0.10693299999999999          
         C36       1.0000    0.72370   0.12920   0.83120   Biso      1.000     C          -0.078288           
         C37       1.0000    0.59540   0.11750   0.80560   Biso      1.000     C          -0.095335           
         C38       1.0000    0.57810   0.10830   0.73930   Biso      1.000     C          -0.014157           
         C39       1.0000    0.68900   0.10990   0.69780   Biso      1.000     C          -0.132131           
         C40       1.0000    0.81750   0.12370   0.72290   Biso      1.000     C          -0.033701999999999996         
         C41       1.0000    0.22940   0.36420   0.61710   Biso      1.000     C          0.623841  
         C42       1.0000    0.19920   0.86210   0.60540   Biso      1.000     C          0.591631  
         C43       1.0000    0.21590   0.72190   0.50360   Biso      1.000     C          -0.103737           
         C44       1.0000    0.22800   0.60090   0.47250   Biso      1.000     C          -0.089607           
         C45       1.0000    0.23380   0.48320   0.50900   Biso      1.000     C          -0.093454           
         C46       1.0000    0.22900   0.49060   0.57650   Biso      1.000     C          -0.029294           
         C47       1.0000    0.21960   0.61210   0.60790   Biso      1.000     C          -0.124277           
         C48       1.0000    0.90440   0.43890   0.46230   Biso      1.000     C          0.591072  
         C49       1.0000    0.86210   0.80080   0.85540   Biso      1.000     C          0.5916319999999999  
         C50       1.0000    0.72190   0.78410   0.75360   Biso      1.000     C          -0.103744           
         C51       1.0000    0.60090   0.77200   0.72250   Biso      1.000     C          -0.08960900000000001          
         C52       1.0000    0.56110   0.90440   0.21230   Biso      1.000     C          0.591074  
         C53       1.0000    0.06470   0.87520   0.17760   Biso      1.000     C          0.624686  
         C54       1.0000    0.16400   0.86660   0.28980   Biso      1.000     C          -0.106931           
         C55       1.0000    0.27630   0.87080   0.33120   Biso      1.000     C          -0.078288           
         C56       1.0000    0.40460   0.88250   0.30560   Biso      1.000     C          -0.095335           
         C57       1.0000    0.42190   0.89170   0.23930   Biso      1.000     C          -0.014157           
         C58       1.0000    0.31100   0.89010   0.19780   Biso      1.000     C          -0.13213  
         C59       1.0000    0.80080   0.13790   0.10540   Biso      1.000     C          0.591631  
         C60       1.0000    0.77060   0.63580   0.11710   Biso      1.000     C          0.62384   
         C61       1.0000    0.48320   0.76620   0.75900   Biso      1.000     C          -0.093454           
         C62       1.0000    0.49060   0.77100   0.82650   Biso      1.000     C          -0.029292000000000002         
         C63       1.0000    0.61210   0.78040   0.85790   Biso      1.000     C          -0.124279           
         C64       1.0000    0.72900   0.78830   0.82110   Biso      1.000     C          -0.02493  
         Co1       1.0000    0.90137   0.21546   0.39562   Biso      1.000     Co          0.916273  
         Co2       1.0000    0.09863   0.78454   0.89562   Biso      1.000     Co          0.916273  
         Co3       1.0000    0.21546   0.09863   0.64562   Biso      1.000     Co          0.916265  
         Co4       1.0000    0.78454   0.90137   0.14562   Biso      1.000     Co          0.9162629999999999  
         H1        1.0000    0.10150   0.32350   0.90200   Biso      1.000     H          0.091265  
         H2        1.0000    0.80200   0.78960   0.72850   Biso      1.000     H          0.106625  
         H3        1.0000    0.59720   0.76760   0.67620   Biso      1.000     H          0.110225  
         H4        1.0000    0.39870   0.75900   0.73780   Biso      1.000     H          0.11895399999999999           
         H5        1.0000    0.76760   0.40280   0.92620   Biso      1.000     H          0.110226  
         H6        1.0000    0.11590   0.48020   0.08390   Biso      1.000     H          0.120143  
         H7        1.0000    0.48020   0.88410   0.33390   Biso      1.000     H          0.12014100000000001           
         H8        1.0000    0.26420   0.86550   0.37720   Biso      1.000     H          0.111051  
         H9        1.0000    0.07640   0.85730   0.30750   Biso      1.000     H          0.102752  
         H10       1.0000    0.61610   0.78140   0.90430   Biso      1.000     H          0.126685  
         H11       1.0000    0.13450   0.26420   0.12720   Biso      1.000     H          0.111052  
         H12       1.0000    0.14270   0.07640   0.05750   Biso      1.000     H          0.102752  
         H13       1.0000    0.38390   0.21860   0.40430   Biso      1.000     H          0.126685  
         H14       1.0000    0.75900   0.60130   0.98780   Biso      1.000     H          0.11895499999999999           
         H15       1.0000    0.78140   0.38390   0.15430   Biso      1.000     H          0.126686  
         H16       1.0000    0.92360   0.14270   0.80750   Biso      1.000     H          0.102752  
         H17       1.0000    0.73580   0.13450   0.87720   Biso      1.000     H          0.111052  
         H18       1.0000    0.51980   0.11590   0.83390   Biso      1.000     H          0.12014100000000001           
         H19       1.0000    0.67650   0.10150   0.65200   Biso      1.000     H          0.091264  
         H20       1.0000    0.21040   0.80200   0.47850   Biso      1.000     H          0.106626  
         H21       1.0000    0.23240   0.59720   0.42620   Biso      1.000     H          0.11022699999999999           
         H22       1.0000    0.24100   0.39870   0.48780   Biso      1.000     H          0.11895499999999999           
         H23       1.0000    0.21860   0.61610   0.65430   Biso      1.000     H          0.126686  
         H24       1.0000    0.85730   0.92360   0.55750   Biso      1.000     H          0.102752  
         H25       1.0000    0.86550   0.73580   0.62720   Biso      1.000     H          0.111053  
         H26       1.0000    0.88410   0.51980   0.58390   Biso      1.000     H          0.120143  
         H27       1.0000    0.32350   0.89850   0.15200   Biso      1.000     H          0.091265  
         H28       1.0000    0.19800   0.21040   0.22850   Biso      1.000     H          0.106626  
         H29       1.0000    0.40280   0.23240   0.17620   Biso      1.000     H          0.110226  
         H30       1.0000    0.60130   0.24100   0.23780   Biso      1.000     H          0.11895499999999999           
         H31       1.0000    0.78960   0.19800   0.97850   Biso      1.000     H          0.106626  
         H32       1.0000    0.89850   0.67650   0.40200   Biso      1.000     H          0.091266  
         Na1       1.0000    0.94290   0.85290   0.02078   Biso      1.000     Na          0.881114  
         Na2       1.0000    0.79960   0.72320   0.27966   Biso      1.000     Na          0.918248  
         Na3       1.0000    0.85290   0.05710   0.27078   Biso      1.000     Na          0.8811129999999999  
         Na4       1.0000    0.20040   0.27680   0.77966   Biso      1.000     Na          0.9182520000000001  
         Na5       1.0000    0.14710   0.94290   0.77078   Biso      1.000     Na          0.8811129999999999  
         Na6       1.0000    0.72320   0.20040   0.52966   Biso      1.000     Na          0.9182549999999999  
         Na7       1.0000    0.05710   0.14710   0.52078   Biso      1.000     Na          0.881114  
         Na8       1.0000    0.27680   0.79960   0.02966   Biso      1.000     Na          0.9182540000000001  
         O1        1.0000    0.18910   0.96730   0.56940   Biso      1.000     O          -0.6078979999999999           
         O2        1.0000    0.24210   0.36720   0.67670   Biso      1.000     O          -0.648807           
         O3        1.0000    0.21270   0.25430   0.58450   Biso      1.000     O          -0.633808           
         O4        1.0000    0.91650   0.13450   0.61662   Biso      1.000     O          -0.662899           
         O5        1.0000    0.05210   0.11570   0.70383   Biso      1.000     O          -0.690938           
         O6        1.0000    0.42510   0.08870   0.65030   Biso      1.000     O          -0.554196           
         O7        1.0000    0.75790   0.63280   0.17670   Biso      1.000     O          -0.648807           
         O8        1.0000    0.79780   0.12920   0.16607   Biso      1.000     O          -0.601692           
         O9        1.0000    0.81090   0.03270   0.06940   Biso      1.000     O          -0.607899           
         O10       1.0000    0.20220   0.87080   0.66607   Biso      1.000     O          -0.601691           
         O11       1.0000    0.78730   0.74570   0.08450   Biso      1.000     O          -0.633808           
         O12       1.0000    0.08350   0.86550   0.11662   Biso      1.000     O          -0.662898           
         O13       1.0000    0.94790   0.88430   0.20383   Biso      1.000     O          -0.6909390000000001           
         O14       1.0000    0.33840   0.09840   0.74890   Biso      1.000     O          -0.708469           
         O15       1.0000    0.90160   0.33840   0.49890   Biso      1.000     O          -0.70845  
         O16       1.0000    0.86550   0.91650   0.36662   Biso      1.000     O          -0.662896           
         O17       1.0000    0.88430   0.05210   0.45383   Biso      1.000     O          -0.690945           
         O18       1.0000    0.57490   0.91130   0.15030   Biso      1.000     O          -0.554197           
         O19       1.0000    0.74570   0.21270   0.33450   Biso      1.000     O          -0.633817           
         O20       1.0000    0.63280   0.24210   0.42670   Biso      1.000     O          -0.648816           
         O21       1.0000    0.03270   0.18910   0.31940   Biso      1.000     O          -0.607892           
         O22       1.0000    0.12920   0.20220   0.41607   Biso      1.000     O          -0.601697           
         O23       1.0000    0.09840   0.66160   0.99890   Biso      1.000     O          -0.708461           
         O24       1.0000    0.08870   0.57490   0.90030   Biso      1.000     O          -0.5542090000000001           
         O25       1.0000    0.11570   0.94790   0.95383   Biso      1.000     O          -0.6909390000000001           
         O26       1.0000    0.13450   0.08350   0.86662   Biso      1.000     O          -0.6628970000000001           
         O27       1.0000    0.25430   0.78730   0.83450   Biso      1.000     O          -0.6338159999999999           
         O28       1.0000    0.36720   0.75790   0.92670   Biso      1.000     O          -0.648813           
         O29       1.0000    0.96730   0.81090   0.81940   Biso      1.000     O          -0.6078939999999999           
         O30       1.0000    0.87080   0.79780   0.91607   Biso      1.000     O          -0.601696           
         O31       1.0000    0.91130   0.42510   0.40030   Biso      1.000     O          -0.554213           
         O32       1.0000    0.66160   0.90160   0.24890   Biso      1.000     O          -0.708467 