
##########################################################################
#               Crystallographic Information Format file
#               Produced by PyCifRW module
#
#  This is a CIF file.  CIF has been adopted by the International
#  Union of Crystallography as the standard for data archiving and
#  transmission.
#
#  For information on this file format, follow the CIF links at
#  http://www.iucr.org
##########################################################################

data_image0

_cell_length_a                          10.896
_cell_length_b                          13.901
_cell_length_c                          14.2556
_cell_angle_alpha                       90
_cell_angle_beta                        90
_cell_angle_gamma                       109.49
_symmetry_space_group_name_H-M          'P 1'
_symmetry_int_tables_number             1
loop_
  _symmetry_equiv_pos_as_xyz
         'x, y, z' 
loop_
  _atom_site_label
  _atom_site_occupancy
  _atom_site_fract_x
  _atom_site_fract_y
  _atom_site_fract_z
  _atom_site_thermal_displace_type
  _atom_site_B_iso_or_equiv
  _atom_site_type_symbol
  _atom_site_charge
         C1        1.0000    0.16580   0.22970   0.84410   Biso      1.000     C          -0.11836300000000001          
         C2        1.0000    0.89570   0.16670   0.84800   Biso      1.000     C          -0.087423           
         C3        1.0000    0.95790   0.12290   0.78510   Biso      1.000     C          -0.090941           
         C4        1.0000    0.09360   0.15400   0.78300   Biso      1.000     C          -0.024444           
         C5        1.0000    0.89690   0.72570   0.09330   Biso      1.000     C          -0.034781           
         C6        1.0000    0.10310   0.27430   0.90670   Biso      1.000     C          -0.034776           
         C7        1.0000    0.39980   0.92830   0.71630   Biso      1.000     C          0.597639  
         C8        1.0000    0.31390   0.65900   0.96710   Biso      1.000     C          0.6140720000000001  
         C9        1.0000    0.54110   0.77400   0.92880   Biso      1.000     C          -0.095742           
         C10       1.0000    0.62660   0.85190   0.87670   Biso      1.000     C          -0.087252           
         C11       1.0000    0.58030   0.90170   0.80850   Biso      1.000     C          -0.09941  
         C12       1.0000    0.44680   0.87560   0.79350   Biso      1.000     C          -0.022682           
         C13       1.0000    0.36140   0.79830   0.84660   Biso      1.000     C          -0.139189           
         C14       1.0000    0.40770   0.74700   0.91390   Biso      1.000     C          -0.031089999999999996         
         C15       1.0000    0.33990   0.39610   0.21740   Biso      1.000     C          0.60183   
         C16       1.0000    0.31600   0.14360   0.47100   Biso      1.000     C          0.620042  
         C17       1.0000    0.53280   0.25780   0.40930   Biso      1.000     C          -0.103302           
         C18       1.0000    0.60430   0.33330   0.34800   Biso      1.000     C          -0.087421           
         C19       1.0000    0.54210   0.37710   0.28510   Biso      1.000     C          -0.09094  
         C20       1.0000    0.40640   0.34600   0.28300   Biso      1.000     C          -0.024446000000000002         
         C21       1.0000    0.33420   0.27030   0.34410   Biso      1.000     C          -0.11835899999999999          
         C22       1.0000    0.39690   0.22570   0.40670   Biso      1.000     C          -0.034773           
         C23       1.0000    0.96720   0.24220   0.90930   Biso      1.000     C          -0.103299           
         C24       1.0000    0.10020   0.57170   0.21630   Biso      1.000     C          0.597639  
         C25       1.0000    0.18400   0.35640   0.97100   Biso      1.000     C          0.620042  
         C26       1.0000    0.90770   0.24700   0.58610   Biso      1.000     C          -0.031089999999999996         
         C27       1.0000    0.45890   0.22600   0.07120   Biso      1.000     C          -0.095743           
         C28       1.0000    0.37340   0.14810   0.12330   Biso      1.000     C          -0.087253           
         C29       1.0000    0.41970   0.09830   0.19150   Biso      1.000     C          -0.09940800000000001          
         C30       1.0000    0.55320   0.12440   0.20650   Biso      1.000     C          -0.022681           
         C31       1.0000    0.63860   0.20170   0.15340   Biso      1.000     C          -0.139189           
         C32       1.0000    0.59230   0.25300   0.08610   Biso      1.000     C          -0.031089           
         C33       1.0000    0.66010   0.60390   0.78260   Biso      1.000     C          0.601828  
         C34       1.0000    0.68400   0.85640   0.52900   Biso      1.000     C          0.620041  
         C35       1.0000    0.46720   0.74220   0.59070   Biso      1.000     C          -0.10330299999999999          
         C36       1.0000    0.39570   0.66670   0.65200   Biso      1.000     C          -0.087422           
         C37       1.0000    0.45790   0.62290   0.71490   Biso      1.000     C          -0.090943           
         C38       1.0000    0.59360   0.65400   0.71700   Biso      1.000     C          -0.024446000000000002         
         C39       1.0000    0.66580   0.72970   0.65590   Biso      1.000     C          -0.11835899999999999          
         C40       1.0000    0.60310   0.77430   0.59330   Biso      1.000     C          -0.034773           
         C41       1.0000    0.89980   0.42830   0.78370   Biso      1.000     C          0.597639  
         C42       1.0000    0.81390   0.15900   0.53290   Biso      1.000     C          0.614073  
         C43       1.0000    0.04110   0.27400   0.57120   Biso      1.000     C          -0.095743           
         C44       1.0000    0.12660   0.35190   0.62330   Biso      1.000     C          -0.087247           
         C45       1.0000    0.08030   0.40170   0.69150   Biso      1.000     C          -0.09940800000000001          
         C46       1.0000    0.94680   0.37560   0.70650   Biso      1.000     C          -0.022680000000000002         
         C47       1.0000    0.86140   0.29830   0.65340   Biso      1.000     C          -0.13918599999999998          
         C48       1.0000    0.16010   0.10390   0.71740   Biso      1.000     C          0.601833  
         C49       1.0000    0.18610   0.84100   0.46710   Biso      1.000     C          0.614073  
         C50       1.0000    0.95890   0.72600   0.42880   Biso      1.000     C          -0.095742           
         C51       1.0000    0.87340   0.64810   0.37670   Biso      1.000     C          -0.087246           
         C52       1.0000    0.83990   0.89610   0.28260   Biso      1.000     C          0.601829  
         C53       1.0000    0.81600   0.64360   0.02900   Biso      1.000     C          0.620041  
         C54       1.0000    0.03280   0.75780   0.09070   Biso      1.000     C          -0.103301           
         C55       1.0000    0.10430   0.83330   0.15200   Biso      1.000     C          -0.087421           
         C56       1.0000    0.04210   0.87710   0.21490   Biso      1.000     C          -0.090943           
         C57       1.0000    0.90640   0.84600   0.21700   Biso      1.000     C          -0.024447           
         C58       1.0000    0.83420   0.77030   0.15590   Biso      1.000     C          -0.118355           
         C59       1.0000    0.68610   0.34100   0.03290   Biso      1.000     C          0.6140720000000001  
         C60       1.0000    0.60020   0.07170   0.28370   Biso      1.000     C          0.59764   
         C61       1.0000    0.91970   0.59830   0.30850   Biso      1.000     C          -0.09941  
         C62       1.0000    0.05320   0.62440   0.29350   Biso      1.000     C          -0.022681           
         C63       1.0000    0.13860   0.70170   0.34660   Biso      1.000     C          -0.13918699999999998          
         C64       1.0000    0.09230   0.75300   0.41390   Biso      1.000     C          -0.031089999999999996         
         Co1       1.0000    0.26075   0.50168   0.10569   Biso      1.000     Co          0.913485  
         Co2       1.0000    0.23925   0.99832   0.60569   Biso      1.000     Co          0.913483  
         Co3       1.0000    0.76075   0.00168   0.39431   Biso      1.000     Co          0.913486  
         Co4       1.0000    0.73925   0.49832   0.89431   Biso      1.000     Co          0.913484  
         H1        1.0000    0.24180   0.24910   0.34300   Biso      1.000     H          0.126115  
         H2        1.0000    0.92650   0.76090   0.47470   Biso      1.000     H          0.11692999999999999           
         H3        1.0000    0.78240   0.62880   0.38780   Biso      1.000     H          0.11083399999999999           
         H4        1.0000    0.86050   0.54620   0.27190   Biso      1.000     H          0.11459100000000001           
         H5        1.0000    0.28240   0.12880   0.11220   Biso      1.000     H          0.110845  
         H6        1.0000    0.59190   0.42840   0.24310   Biso      1.000     H          0.117942  
         H7        1.0000    0.09190   0.92840   0.25690   Biso      1.000     H          0.11794   
         H8        1.0000    0.19680   0.85500   0.15070   Biso      1.000     H          0.10974   
         H9        1.0000    0.07600   0.72820   0.04730   Biso      1.000     H          0.108599  
         H10       1.0000    0.22970   0.71970   0.33680   Biso      1.000     H          0.08935   
         H11       1.0000    0.69680   0.35500   0.34930   Biso      1.000     H          0.10974400000000001           
         H12       1.0000    0.57600   0.22820   0.45270   Biso      1.000     H          0.1086    
         H13       1.0000    0.27030   0.78030   0.83680   Biso      1.000     H          0.089349  
         H14       1.0000    0.36050   0.04620   0.22810   Biso      1.000     H          0.11459100000000001           
         H15       1.0000    0.72970   0.21970   0.16320   Biso      1.000     H          0.089347  
         H16       1.0000    0.42400   0.77180   0.54730   Biso      1.000     H          0.108601  
         H17       1.0000    0.30320   0.64500   0.65070   Biso      1.000     H          0.10974300000000001           
         H18       1.0000    0.40810   0.57160   0.75690   Biso      1.000     H          0.117942  
         H19       1.0000    0.75820   0.75090   0.65700   Biso      1.000     H          0.126114  
         H20       1.0000    0.07350   0.23910   0.52530   Biso      1.000     H          0.11692999999999999           
         H21       1.0000    0.21760   0.37120   0.61220   Biso      1.000     H          0.11083699999999999           
         H22       1.0000    0.13950   0.45380   0.72810   Biso      1.000     H          0.11459100000000001           
         H23       1.0000    0.77030   0.28030   0.66320   Biso      1.000     H          0.089348  
         H24       1.0000    0.92400   0.27180   0.95270   Biso      1.000     H          0.108599  
         H25       1.0000    0.80320   0.14500   0.84930   Biso      1.000     H          0.109741  
         H26       1.0000    0.90810   0.07160   0.74310   Biso      1.000     H          0.117941  
         H27       1.0000    0.74180   0.74910   0.15700   Biso      1.000     H          0.126113  
         H28       1.0000    0.57350   0.73910   0.97470   Biso      1.000     H          0.11692999999999999           
         H29       1.0000    0.71760   0.87120   0.88780   Biso      1.000     H          0.11084200000000001           
         H30       1.0000    0.63950   0.95380   0.77190   Biso      1.000     H          0.11459000000000001           
         H31       1.0000    0.42650   0.26090   0.02530   Biso      1.000     H          0.11692999999999999           
         H32       1.0000    0.25820   0.25090   0.84300   Biso      1.000     H          0.126115  
         Na1       1.0000    0.49401   0.83424   0.33126   Biso      1.000     Na          0.9235639999999999  
         Na2       1.0000    0.50000   0.50000   0.00000   Biso      1.000     Na          0.878983  
         Na3       1.0000    0.00000   0.00000   0.50000   Biso      1.000     Na          0.8789870000000001  
         Na4       1.0000    0.00000   0.50000   0.00000   Biso      1.000     Na          0.8665430000000001  
         Na5       1.0000    0.50000   0.00000   0.50000   Biso      1.000     Na          0.866542  
         Na6       1.0000    0.99401   0.33424   0.16874   Biso      1.000     Na          0.9236030000000001  
         Na7       1.0000    0.50599   0.16576   0.66874   Biso      1.000     Na          0.923586  
         Na8       1.0000    0.00599   0.66576   0.83126   Biso      1.000     Na          0.92358   
         O1        1.0000    0.86730   0.11100   0.47827   Biso      1.000     O          -0.620908           
         O2        1.0000    0.77770   0.40690   0.79415   Biso      1.000     O          -0.5664239999999999           
         O3        1.0000    0.98050   0.49100   0.83436   Biso      1.000     O          -0.714807           
         O4        1.0000    0.80340   0.88470   0.53250   Biso      1.000     O          -0.589472           
         O5        1.0000    0.62260   0.89552   0.47001   Biso      1.000     O          -0.737045           
         O6        1.0000    0.78160   0.62520   0.78085   Biso      1.000     O          -0.639861           
         O7        1.0000    0.72230   0.09310   0.29415   Biso      1.000     O          -0.566426           
         O8        1.0000    0.80550   0.36173   0.04285   Biso      1.000     O          -0.644844           
         O9        1.0000    0.63270   0.38900   0.97827   Biso      1.000     O          -0.6209060000000001           
         O10       1.0000    0.69450   0.13827   0.54285   Biso      1.000     O          -0.644844           
         O11       1.0000    0.51950   0.00900   0.33436   Biso      1.000     O          -0.714806           
         O12       1.0000    0.69660   0.61530   0.03250   Biso      1.000     O          -0.589472           
         O13       1.0000    0.87740   0.60448   0.97001   Biso      1.000     O          -0.737047           
         O14       1.0000    0.59000   0.53650   0.83894   Biso      1.000     O          -0.5895560000000001           
         O15       1.0000    0.09000   0.03650   0.66106   Biso      1.000     O          -0.5895560000000001           
         O16       1.0000    0.30340   0.38470   0.96750   Biso      1.000     O          -0.589471           
         O17       1.0000    0.12260   0.39552   0.02999   Biso      1.000     O          -0.73705  
         O18       1.0000    0.71840   0.87480   0.28085   Biso      1.000     O          -0.639858           
         O19       1.0000    0.48050   0.99100   0.66564   Biso      1.000     O          -0.714808           
         O20       1.0000    0.27770   0.90690   0.70585   Biso      1.000     O          -0.566421           
         O21       1.0000    0.36730   0.61100   0.02173   Biso      1.000     O          -0.6209060000000001           
         O22       1.0000    0.19450   0.63827   0.95715   Biso      1.000     O          -0.644843           
         O23       1.0000    0.41000   0.46350   0.16106   Biso      1.000     O          -0.589554           
         O24       1.0000    0.21840   0.37480   0.21915   Biso      1.000     O          -0.639865           
         O25       1.0000    0.37740   0.10448   0.52999   Biso      1.000     O          -0.737046           
         O26       1.0000    0.19660   0.11530   0.46750   Biso      1.000     O          -0.589471           
         O27       1.0000    0.01950   0.50900   0.16564   Biso      1.000     O          -0.7148100000000001           
         O28       1.0000    0.22230   0.59310   0.20585   Biso      1.000     O          -0.56642  
         O29       1.0000    0.13270   0.88900   0.52173   Biso      1.000     O          -0.620907           
         O30       1.0000    0.30550   0.86173   0.45715   Biso      1.000     O          -0.644843           
         O31       1.0000    0.28160   0.12520   0.71915   Biso      1.000     O          -0.639863           
         O32       1.0000    0.91000   0.96350   0.33894   Biso      1.000     O          -0.589559 