
##########################################################################
#               Crystallographic Information Format file
#               Produced by PyCifRW module
#
#  This is a CIF file.  CIF has been adopted by the International
#  Union of Crystallography as the standard for data archiving and
#  transmission.
#
#  For information on this file format, follow the CIF links at
#  http://www.iucr.org
##########################################################################

data_image0

_cell_length_a                          10.0292
_cell_length_b                          10.0292
_cell_length_c                          20.808
_cell_angle_alpha                       90
_cell_angle_beta                        90
_cell_angle_gamma                       90
_symmetry_space_group_name_H-M          'P 1'
_symmetry_int_tables_number             1
loop_
  _symmetry_equiv_pos_as_xyz
         'x, y, z' 
loop_
  _atom_site_label
  _atom_site_occupancy
  _atom_site_fract_x
  _atom_site_fract_y
  _atom_site_fract_z
  _atom_site_thermal_displace_type
  _atom_site_B_iso_or_equiv
  _atom_site_type_symbol
  _atom_site_charge
         C1        1.0000    0.86170   0.68530   0.44970   Biso      1.000     C          -0.128136           
         C2        1.0000    0.86500   0.72620   0.58080   Biso      1.000     C          -0.078275           
         C3        1.0000    0.86640   0.59630   0.55620   Biso      1.000     C          -0.089297           
         C4        1.0000    0.86580   0.57610   0.49090   Biso      1.000     C          -0.014379           
         C5        1.0000    0.18490   0.86190   0.22320   Biso      1.000     C          -0.040203           
         C6        1.0000    0.86190   0.81510   0.47320   Biso      1.000     C          -0.040199           
         C7        1.0000    0.62290   0.20740   0.36550   Biso      1.000     C          0.626285  
         C8        1.0000    0.12400   0.19180   0.35960   Biso      1.000     C          0.600617  
         C9        1.0000    0.25960   0.18490   0.25940   Biso      1.000     C          -0.102481           
         C10       1.0000    0.37930   0.18660   0.22650   Biso      1.000     C          -0.092465           
         C11       1.0000    0.49880   0.19510   0.26120   Biso      1.000     C          -0.089637           
         C12       1.0000    0.49590   0.20070   0.32840   Biso      1.000     C          -0.035015           
         C13       1.0000    0.37480   0.20100   0.36030   Biso      1.000     C          -0.118522           
         C14       1.0000    0.25580   0.19130   0.32590   Biso      1.000     C          -0.0275   
         C15       1.0000    0.12590   0.56640   0.96670   Biso      1.000     C          0.600707  
         C16       1.0000    0.13440   0.06720   0.92770   Biso      1.000     C          0.628334  
         C17       1.0000    0.13550   0.16580   0.03960   Biso      1.000     C          -0.12039  
         C18       1.0000    0.13500   0.27380   0.08080   Biso      1.000     C          -0.078293           
         C19       1.0000    0.13360   0.40370   0.05620   Biso      1.000     C          -0.089325           
         C20       1.0000    0.13420   0.42390   0.99090   Biso      1.000     C          -0.014379           
         C21       1.0000    0.13830   0.31470   0.94970   Biso      1.000     C          -0.128112           
         C22       1.0000    0.13810   0.18490   0.97320   Biso      1.000     C          -0.040195           
         C23       1.0000    0.86450   0.83420   0.53960   Biso      1.000     C          -0.120355           
         C24       1.0000    0.37710   0.79260   0.86550   Biso      1.000     C          0.626268  
         C25       1.0000    0.86560   0.93280   0.42770   Biso      1.000     C          0.62835   
         C26       1.0000    0.19130   0.74420   0.57590   Biso      1.000     C          -0.027485           
         C27       1.0000    0.81510   0.25960   0.00940   Biso      1.000     C          -0.102452           
         C28       1.0000    0.81340   0.37930   0.97650   Biso      1.000     C          -0.092441           
         C29       1.0000    0.80490   0.49880   0.01120   Biso      1.000     C          -0.08958  
         C30       1.0000    0.79930   0.49590   0.07840   Biso      1.000     C          -0.035052           
         C31       1.0000    0.79900   0.37480   0.11030   Biso      1.000     C          -0.118516           
         C32       1.0000    0.80870   0.25580   0.07590   Biso      1.000     C          -0.02753  
         C33       1.0000    0.43360   0.12590   0.71670   Biso      1.000     C          0.600665  
         C34       1.0000    0.93280   0.13440   0.67770   Biso      1.000     C          0.628341  
         C35       1.0000    0.83420   0.13550   0.78960   Biso      1.000     C          -0.120357           
         C36       1.0000    0.72620   0.13500   0.83080   Biso      1.000     C          -0.078282           
         C37       1.0000    0.59630   0.13360   0.80620   Biso      1.000     C          -0.089302           
         C38       1.0000    0.57610   0.13420   0.74090   Biso      1.000     C          -0.014355           
         C39       1.0000    0.68530   0.13830   0.69970   Biso      1.000     C          -0.128125           
         C40       1.0000    0.81510   0.13810   0.72320   Biso      1.000     C          -0.040185           
         C41       1.0000    0.20740   0.37710   0.61550   Biso      1.000     C          0.626233  
         C42       1.0000    0.19180   0.87600   0.60960   Biso      1.000     C          0.600603  
         C43       1.0000    0.18490   0.74040   0.50940   Biso      1.000     C          -0.102496           
         C44       1.0000    0.18660   0.62070   0.47650   Biso      1.000     C          -0.092488           
         C45       1.0000    0.19510   0.50120   0.51120   Biso      1.000     C          -0.089637           
         C46       1.0000    0.20070   0.50410   0.57840   Biso      1.000     C          -0.03497  
         C47       1.0000    0.20100   0.62520   0.61030   Biso      1.000     C          -0.11855  
         C48       1.0000    0.87410   0.43360   0.46670   Biso      1.000     C          0.600711  
         C49       1.0000    0.87600   0.80820   0.85960   Biso      1.000     C          0.600599  
         C50       1.0000    0.74040   0.81510   0.75940   Biso      1.000     C          -0.102497           
         C51       1.0000    0.62070   0.81340   0.72650   Biso      1.000     C          -0.092487           
         C52       1.0000    0.56640   0.87410   0.21670   Biso      1.000     C          0.60074   
         C53       1.0000    0.06720   0.86560   0.17770   Biso      1.000     C          0.628371  
         C54       1.0000    0.16580   0.86450   0.28960   Biso      1.000     C          -0.120348           
         C55       1.0000    0.27380   0.86500   0.33080   Biso      1.000     C          -0.078259           
         C56       1.0000    0.40370   0.86640   0.30620   Biso      1.000     C          -0.089287           
         C57       1.0000    0.42390   0.86580   0.24090   Biso      1.000     C          -0.014397           
         C58       1.0000    0.31470   0.86170   0.19970   Biso      1.000     C          -0.128103           
         C59       1.0000    0.80820   0.12400   0.10960   Biso      1.000     C          0.60067   
         C60       1.0000    0.79260   0.62290   0.11550   Biso      1.000     C          0.626341  
         C61       1.0000    0.50120   0.80490   0.76120   Biso      1.000     C          -0.089631           
         C62       1.0000    0.50410   0.79930   0.82840   Biso      1.000     C          -0.035027           
         C63       1.0000    0.62520   0.79900   0.86030   Biso      1.000     C          -0.118565           
         C64       1.0000    0.74420   0.80870   0.82590   Biso      1.000     C          -0.027507           
         Co1       1.0000    0.88157   0.20999   0.39440   Biso      1.000     Co          0.914983  
         Co2       1.0000    0.11843   0.79001   0.89440   Biso      1.000     Co          0.914962  
         Co3       1.0000    0.20999   0.11843   0.64440   Biso      1.000     Co          0.914993  
         Co4       1.0000    0.79001   0.88157   0.14440   Biso      1.000     Co          0.914898  
         H1        1.0000    0.14120   0.32910   0.90460   Biso      1.000     H          0.087397  
         H2        1.0000    0.82150   0.82080   0.73600   Biso      1.000     H          0.107187  
         H3        1.0000    0.61940   0.81790   0.68090   Biso      1.000     H          0.111582  
         H4        1.0000    0.41830   0.80290   0.73910   Biso      1.000     H          0.118985  
         H5        1.0000    0.81790   0.38060   0.93090   Biso      1.000     H          0.111598  
         H6        1.0000    0.13230   0.47780   0.08460   Biso      1.000     H          0.12011   
         H7        1.0000    0.47780   0.86770   0.33460   Biso      1.000     H          0.120114  
         H8        1.0000    0.25990   0.86440   0.37600   Biso      1.000     H          0.112415  
         H9        1.0000    0.07790   0.86590   0.30660   Biso      1.000     H          0.096341  
         H10       1.0000    0.62730   0.79220   0.90580   Biso      1.000     H          0.125161  
         H11       1.0000    0.13560   0.25990   0.12600   Biso      1.000     H          0.112416  
         H12       1.0000    0.13410   0.07790   0.05660   Biso      1.000     H          0.09635   
         H13       1.0000    0.37270   0.20780   0.40580   Biso      1.000     H          0.125157  
         H14       1.0000    0.80290   0.58170   0.98910   Biso      1.000     H          0.118998  
         H15       1.0000    0.79220   0.37270   0.15580   Biso      1.000     H          0.125148  
         H16       1.0000    0.92210   0.13410   0.80660   Biso      1.000     H          0.09637   
         H17       1.0000    0.74010   0.13560   0.87600   Biso      1.000     H          0.112458  
         H18       1.0000    0.52220   0.13230   0.83460   Biso      1.000     H          0.120147  
         H19       1.0000    0.67090   0.14120   0.65460   Biso      1.000     H          0.087411  
         H20       1.0000    0.17920   0.82150   0.48600   Biso      1.000     H          0.107218  
         H21       1.0000    0.18210   0.61940   0.43090   Biso      1.000     H          0.111627  
         H22       1.0000    0.19710   0.41830   0.48910   Biso      1.000     H          0.119022  
         H23       1.0000    0.20780   0.62730   0.65580   Biso      1.000     H          0.125192  
         H24       1.0000    0.86590   0.92210   0.55660   Biso      1.000     H          0.096351  
         H25       1.0000    0.86440   0.74010   0.62600   Biso      1.000     H          0.112447  
         H26       1.0000    0.86770   0.52220   0.58460   Biso      1.000     H          0.120138  
         H27       1.0000    0.32910   0.85880   0.15460   Biso      1.000     H          0.087417  
         H28       1.0000    0.17850   0.17920   0.23600   Biso      1.000     H          0.107208  
         H29       1.0000    0.38060   0.18210   0.18090   Biso      1.000     H          0.111623  
         H30       1.0000    0.58170   0.19710   0.23910   Biso      1.000     H          0.119017  
         H31       1.0000    0.82080   0.17850   0.98600   Biso      1.000     H          0.107194  
         H32       1.0000    0.85880   0.67090   0.40460   Biso      1.000     H          0.08742   
         Na1       1.0000    0.95710   0.84560   0.02198   Biso      1.000     Na          0.878952  
         Na2       1.0000    0.82910   0.71100   0.27500   Biso      1.000     Na          0.919424  
         Na3       1.0000    0.84560   0.04290   0.27198   Biso      1.000     Na          0.878971  
         Na4       1.0000    0.17090   0.28900   0.77500   Biso      1.000     Na          0.919445  
         Na5       1.0000    0.15440   0.95710   0.77198   Biso      1.000     Na          0.878975  
         Na6       1.0000    0.71100   0.17090   0.52500   Biso      1.000     Na          0.919471  
         Na7       1.0000    0.04290   0.15440   0.52198   Biso      1.000     Na          0.879012  
         Na8       1.0000    0.28900   0.82910   0.02500   Biso      1.000     Na          0.919376  
         O1        1.0000    0.18040   0.98110   0.57532   Biso      1.000     O          -0.604785           
         O2        1.0000    0.21690   0.37630   0.67390   Biso      1.000     O          -0.637715           
         O3        1.0000    0.19850   0.26760   0.58190   Biso      1.000     O          -0.635768           
         O4        1.0000    0.91220   0.13620   0.61870   Biso      1.000     O          -0.638749           
         O5        1.0000    0.04880   0.12780   0.70405   Biso      1.000     O          -0.712267           
         O6        1.0000    0.41700   0.11650   0.65610   Biso      1.000     O          -0.563175           
         O7        1.0000    0.78310   0.62370   0.17390   Biso      1.000     O          -0.637731           
         O8        1.0000    0.79510   0.11750   0.16900   Biso      1.000     O          -0.611492           
         O9        1.0000    0.81960   0.01890   0.07532   Biso      1.000     O          -0.60477  
         O10       1.0000    0.20490   0.88250   0.66900   Biso      1.000     O          -0.611502           
         O11       1.0000    0.80150   0.73240   0.08190   Biso      1.000     O          -0.635701           
         O12       1.0000    0.08780   0.86380   0.11870   Biso      1.000     O          -0.638731           
         O13       1.0000    0.95120   0.87220   0.20405   Biso      1.000     O          -0.712264           
         O14       1.0000    0.33910   0.12640   0.75490   Biso      1.000     O          -0.708376           
         O15       1.0000    0.87360   0.33910   0.50490   Biso      1.000     O          -0.708412           
         O16       1.0000    0.86380   0.91220   0.36870   Biso      1.000     O          -0.638755           
         O17       1.0000    0.87220   0.04880   0.45405   Biso      1.000     O          -0.712293           
         O18       1.0000    0.58300   0.88350   0.15610   Biso      1.000     O          -0.563127           
         O19       1.0000    0.73240   0.19850   0.33190   Biso      1.000     O          -0.635734           
         O20       1.0000    0.62370   0.21690   0.42390   Biso      1.000     O          -0.637741           
         O21       1.0000    0.01890   0.18040   0.32532   Biso      1.000     O          -0.604818           
         O22       1.0000    0.11750   0.20490   0.41900   Biso      1.000     O          -0.611517           
         O23       1.0000    0.12640   0.66090   0.00490   Biso      1.000     O          -0.70842  
         O24       1.0000    0.11650   0.58300   0.90610   Biso      1.000     O          -0.56317  
         O25       1.0000    0.12780   0.95120   0.95405   Biso      1.000     O          -0.712274           
         O26       1.0000    0.13620   0.08780   0.86870   Biso      1.000     O          -0.638779           
         O27       1.0000    0.26760   0.80150   0.83190   Biso      1.000     O          -0.635734           
         O28       1.0000    0.37630   0.78310   0.92390   Biso      1.000     O          -0.637738           
         O29       1.0000    0.98110   0.81960   0.82532   Biso      1.000     O          -0.604825           
         O30       1.0000    0.88250   0.79510   0.91900   Biso      1.000     O          -0.611516           
         O31       1.0000    0.88350   0.41700   0.40610   Biso      1.000     O          -0.563166           
         O32       1.0000    0.66090   0.87360   0.25490   Biso      1.000     O          -0.708399 