
##########################################################################
#               Crystallographic Information Format file
#               Produced by PyCifRW module
#
#  This is a CIF file.  CIF has been adopted by the International
#  Union of Crystallography as the standard for data archiving and
#  transmission.
#
#  For information on this file format, follow the CIF links at
#  http://www.iucr.org
##########################################################################

data_image0

_cell_length_a                          10.6186
_cell_length_b                          15.7795
_cell_length_c                          14.162
_cell_angle_alpha                       90
_cell_angle_beta                        130.43
_cell_angle_gamma                       90
_symmetry_space_group_name_H-M          'P 1'
_symmetry_int_tables_number             1
loop_
  _symmetry_equiv_pos_as_xyz
         'x, y, z' 
loop_
  _atom_site_label
  _atom_site_occupancy
  _atom_site_fract_x
  _atom_site_fract_y
  _atom_site_fract_z
  _atom_site_thermal_displace_type
  _atom_site_B_iso_or_equiv
  _atom_site_type_symbol
  _atom_site_charge
         C1        1.0000    0.99410   0.44450   0.38410   Biso      1.000     C          0.176305  
         C2        1.0000    0.78430   0.01150   0.20970   Biso      1.000     C          0.597395  
         C3        1.0000    0.21580   0.02410   0.41840   Biso      1.000     C          0.610775  
         C4        1.0000    0.51940   0.74630   0.91650   Biso      1.000     C          0.197069  
         C5        1.0000    0.47600   0.79880   0.75820   Biso      1.000     C          -0.003988           
         C6        1.0000    0.44070   0.71260   0.73850   Biso      1.000     C          -0.06209  
         C7        1.0000    0.47410   0.86320   0.68220   Biso      1.000     C          0.570612  
         C8        1.0000    0.38680   0.65780   0.63630   Biso      1.000     C          0.607445  
         C9        1.0000    0.91410   0.51030   0.70380   Biso      1.000     C          -0.032091           
         C10       1.0000    0.08620   0.50570   0.78800   Biso      1.000     C          -0.025979           
         C11       1.0000    0.78430   0.48850   0.70970   Biso      1.000     C          0.597395  
         C12       1.0000    0.21580   0.47590   0.91840   Biso      1.000     C          0.610775  
         C13       1.0000    0.51940   0.75370   0.41650   Biso      1.000     C          0.197069  
         C14       1.0000    0.08620   0.99430   0.28800   Biso      1.000     C          -0.025981           
         C15       1.0000    0.47600   0.70120   0.25820   Biso      1.000     C          -0.003988           
         C16       1.0000    0.47410   0.63680   0.18220   Biso      1.000     C          0.570612  
         C17       1.0000    0.38680   0.84220   0.13630   Biso      1.000     C          0.607444  
         C18       1.0000    0.99410   0.05550   0.88410   Biso      1.000     C          0.176305  
         C19       1.0000    0.08590   0.01030   0.79620   Biso      1.000     C          -0.032091           
         C20       1.0000    0.91380   0.00570   0.71200   Biso      1.000     C          -0.025979           
         C21       1.0000    0.21570   0.98850   0.79030   Biso      1.000     C          0.597395  
         C22       1.0000    0.78420   0.97590   0.58160   Biso      1.000     C          0.610775  
         C23       1.0000    0.48060   0.25370   0.08350   Biso      1.000     C          0.197069  
         C24       1.0000    0.52400   0.20120   0.24180   Biso      1.000     C          -0.003988           
         C25       1.0000    0.55930   0.28740   0.26150   Biso      1.000     C          -0.06209  
         C26       1.0000    0.52590   0.13680   0.31780   Biso      1.000     C          0.570612  
         C27       1.0000    0.61320   0.34220   0.36370   Biso      1.000     C          0.607445  
         C28       1.0000    0.44070   0.78740   0.23850   Biso      1.000     C          -0.062089           
         C29       1.0000    0.91410   0.98970   0.20380   Biso      1.000     C          -0.03209  
         C30       1.0000    0.00590   0.55550   0.61590   Biso      1.000     C          0.176305  
         C31       1.0000    0.00590   0.94450   0.11590   Biso      1.000     C          0.176305  
         C32       1.0000    0.61320   0.15780   0.86370   Biso      1.000     C          0.607444  
         C33       1.0000    0.52590   0.36320   0.81780   Biso      1.000     C          0.570612  
         C34       1.0000    0.55930   0.21260   0.76150   Biso      1.000     C          -0.06209  
         C35       1.0000    0.48060   0.24630   0.58350   Biso      1.000     C          0.197069  
         C36       1.0000    0.78420   0.52410   0.08160   Biso      1.000     C          0.610775  
         C37       1.0000    0.52400   0.29880   0.74180   Biso      1.000     C          -0.003988           
         C38       1.0000    0.91380   0.49430   0.21200   Biso      1.000     C          -0.025981           
         C39       1.0000    0.08590   0.48970   0.29620   Biso      1.000     C          -0.03209  
         C40       1.0000    0.21570   0.51150   0.29030   Biso      1.000     C          0.597395  
         Cd1       1.0000    0.57964   0.04315   0.65645   Biso      1.000     Cd          0.935924  
         Cd2       1.0000    0.40641   0.04343   0.07049   Biso      1.000     Cd          0.933244  
         Cd3       1.0000    0.57964   0.45685   0.15645   Biso      1.000     Cd          0.935924  
         Cd4       1.0000    0.59359   0.54343   0.42951   Biso      1.000     Cd          0.933244  
         Cd5       1.0000    0.42036   0.95685   0.34355   Biso      1.000     Cd          0.935924  
         Cd6       1.0000    0.00000   0.50000   0.00000   Biso      1.000     Cd          1.149187  
         Cd7       1.0000    0.59359   0.95657   0.92951   Biso      1.000     Cd          0.933244  
         Cd8       1.0000    0.00000   0.00000   0.50000   Biso      1.000     Cd          1.149187  
         Cd9       1.0000    0.42036   0.54315   0.84355   Biso      1.000     Cd          0.935924  
         Cd10      1.0000    0.40641   0.45657   0.57049   Biso      1.000     Cd          0.933244  
         H1        1.0000    0.45200   0.25830   0.00620   Biso      1.000     H          0.09319   
         H2        1.0000    0.45200   0.24170   0.50620   Biso      1.000     H          0.09319   
         H3        1.0000    0.99140   0.42190   0.44340   Biso      1.000     H          0.088271  
         H4        1.0000    0.37660   0.75930   0.04950   Biso      1.000     H          0.400692  
         H5        1.0000    0.54800   0.75830   0.49380   Biso      1.000     H          0.09319   
         H6        1.0000    0.54800   0.74170   0.99380   Biso      1.000     H          0.09319   
         H7        1.0000    0.00860   0.92190   0.05660   Biso      1.000     H          0.088271  
         H8        1.0000    0.00860   0.57810   0.55660   Biso      1.000     H          0.088271  
         H9        1.0000    0.62340   0.25930   0.45050   Biso      1.000     H          0.400692  
         H10       1.0000    0.62340   0.24070   0.95050   Biso      1.000     H          0.400692  
         H11       1.0000    0.37660   0.74070   0.54950   Biso      1.000     H          0.400692  
         H12       1.0000    0.99140   0.07810   0.94340   Biso      1.000     H          0.088271  
         N1        1.0000    0.14140   0.96560   0.22900   Biso      1.000     N          -0.330125           
         N2        1.0000    0.53350   0.31920   0.16120   Biso      1.000     N          -0.314757           
         N3        1.0000    0.46650   0.68080   0.83880   Biso      1.000     N          -0.314757           
         N4        1.0000    0.86590   0.95830   0.09440   Biso      1.000     N          -0.338069           
         N5        1.0000    0.13410   0.04170   0.90560   Biso      1.000     N          -0.338069           
         N6        1.0000    0.85860   0.03440   0.77100   Biso      1.000     N          -0.330125           
         N7        1.0000    0.47270   0.18090   0.12780   Biso      1.000     N          -0.326618           
         N8        1.0000    0.52730   0.81910   0.87220   Biso      1.000     N          -0.326618           
         N9        1.0000    0.46650   0.81920   0.33880   Biso      1.000     N          -0.314757           
         N10       1.0000    0.52730   0.68090   0.37220   Biso      1.000     N          -0.326618           
         N11       1.0000    0.86590   0.54170   0.59440   Biso      1.000     N          -0.338069           
         N12       1.0000    0.13410   0.45830   0.40560   Biso      1.000     N          -0.338069           
         N13       1.0000    0.85860   0.46560   0.27100   Biso      1.000     N          -0.330125           
         N14       1.0000    0.47270   0.31910   0.62780   Biso      1.000     N          -0.326618           
         N15       1.0000    0.53350   0.18080   0.66120   Biso      1.000     N          -0.314757           
         N16       1.0000    0.14140   0.53440   0.72900   Biso      1.000     N          -0.330125           
         O1        1.0000    0.36270   0.00280   0.88850   Biso      1.000     O          -0.538812           
         O2        1.0000    0.62860   0.08100   0.85590   Biso      1.000     O          -0.511759           
         O3        1.0000    0.81400   0.96040   0.51200   Biso      1.000     O          -0.587478           
         O4        1.0000    0.64360   0.96690   0.54830   Biso      1.000     O          -0.527108           
         O5        1.0000    0.46450   0.06560   0.26660   Biso      1.000     O          -0.555926           
         O6        1.0000    0.58190   0.15540   0.42490   Biso      1.000     O          -0.559102           
         O7        1.0000    0.64100   0.31040   0.46010   Biso      1.000     O          -0.492017           
         O8        1.0000    0.62860   0.41900   0.35590   Biso      1.000     O          -0.511759           
         O9        1.0000    0.18490   0.95820   0.69590   Biso      1.000     O          -0.579595           
         O10       1.0000    0.41810   0.84460   0.57510   Biso      1.000     O          -0.559102           
         O11       1.0000    0.58190   0.34460   0.92490   Biso      1.000     O          -0.559102           
         O12       1.0000    0.35900   0.68960   0.53990   Biso      1.000     O          -0.492017           
         O13       1.0000    0.37140   0.58100   0.64410   Biso      1.000     O          -0.511759           
         O14       1.0000    0.35640   0.03310   0.45170   Biso      1.000     O          -0.527108           
         O15       1.0000    0.18600   0.03960   0.48800   Biso      1.000     O          -0.587478           
         O16       1.0000    0.63730   0.99720   0.11150   Biso      1.000     O          -0.538812           
         O17       1.0000    0.64360   0.53310   0.04830   Biso      1.000     O          -0.527108           
         O18       1.0000    0.81400   0.53960   0.01200   Biso      1.000     O          -0.587478           
         O19       1.0000    0.36270   0.49720   0.38850   Biso      1.000     O          -0.538812           
         O20       1.0000    0.18490   0.54180   0.19590   Biso      1.000     O          -0.579595           
         O21       1.0000    0.81510   0.04180   0.30410   Biso      1.000     O          -0.579595           
         O22       1.0000    0.81510   0.45820   0.80410   Biso      1.000     O          -0.579595           
         O23       1.0000    0.63730   0.50280   0.61150   Biso      1.000     O          -0.538812           
         O24       1.0000    0.18600   0.46040   0.98800   Biso      1.000     O          -0.587478           
         O25       1.0000    0.35640   0.46690   0.95170   Biso      1.000     O          -0.527108           
         O26       1.0000    0.53550   0.56560   0.23340   Biso      1.000     O          -0.555926           
         O27       1.0000    0.41810   0.65540   0.07510   Biso      1.000     O          -0.559102           
         O28       1.0000    0.35900   0.81040   0.03990   Biso      1.000     O          -0.492017           
         O29       1.0000    0.53550   0.93440   0.73340   Biso      1.000     O          -0.555926           
         O30       1.0000    0.46450   0.43440   0.76660   Biso      1.000     O          -0.555926           
         O31       1.0000    0.64100   0.18960   0.96010   Biso      1.000     O          -0.492017           
         O32       1.0000    0.37140   0.91900   0.14410   Biso      1.000     O          -0.511759 