
##########################################################################
#               Crystallographic Information Format file
#               Produced by PyCifRW module
#
#  This is a CIF file.  CIF has been adopted by the International
#  Union of Crystallography as the standard for data archiving and
#  transmission.
#
#  For information on this file format, follow the CIF links at
#  http://www.iucr.org
##########################################################################

data_image0

_cell_length_a                          8.105
_cell_length_b                          16.969
_cell_length_c                          17.666
_cell_angle_alpha                       90
_cell_angle_beta                        102.495
_cell_angle_gamma                       90
_symmetry_space_group_name_H-M          'P 1'
_symmetry_int_tables_number             1
loop_
  _symmetry_equiv_pos_as_xyz
         'x, y, z' 
loop_
  _atom_site_label
  _atom_site_occupancy
  _atom_site_fract_x
  _atom_site_fract_y
  _atom_site_fract_z
  _atom_site_thermal_displace_type
  _atom_site_B_iso_or_equiv
  _atom_site_type_symbol
  _atom_site_charge
         C1        1.0000    0.92040   0.02480   0.68630   Biso      1.000     C          0.678057  
         C2        1.0000    0.71160   0.41280   0.97630   Biso      1.000     C          0.578299  
         C3        1.0000    0.54590   0.47240   0.71800   Biso      1.000     C          0.670288  
         C4        1.0000    0.60350   0.42960   0.65380   Biso      1.000     C          -0.391847           
         C5        1.0000    0.65180   0.34570   0.67320   Biso      1.000     C          0.102007  
         C6        1.0000    0.69530   0.30220   0.60260   Biso      1.000     C          0.57709   
         C7        1.0000    0.21760   0.23410   0.61610   Biso      1.000     C          0.15093   
         C8        1.0000    0.27990   0.17250   0.72170   Biso      1.000     C          0.173073  
         C9        1.0000    0.25790   0.29790   0.86620   Biso      1.000     C          0.173488  
         C10       1.0000    0.10850   0.34430   0.94140   Biso      1.000     C          0.143438  
         C11       1.0000    0.27110   0.94470   0.44120   Biso      1.000     C          0.121682  
         C12       1.0000    0.69530   0.19780   0.10260   Biso      1.000     C          0.576899  
         C13       1.0000    0.11350   0.93780   0.39500   Biso      1.000     C          -0.422474           
         C14       1.0000    0.72010   0.67250   0.77830   Biso      1.000     C          0.171716  
         C15       1.0000    0.88650   0.06220   0.60500   Biso      1.000     C          -0.422515           
         C16       1.0000    0.10850   0.15570   0.44140   Biso      1.000     C          0.143393  
         C17       1.0000    0.72890   0.05530   0.55880   Biso      1.000     C          0.121603  
         C18       1.0000    0.25790   0.20210   0.36620   Biso      1.000     C          0.173177  
         C19       1.0000    0.71160   0.08720   0.47630   Biso      1.000     C          0.578164  
         C20       1.0000    0.27990   0.32750   0.22170   Biso      1.000     C          0.173484  
         C21       1.0000    0.54590   0.02760   0.21800   Biso      1.000     C          0.670086  
         C22       1.0000    0.21760   0.26590   0.11610   Biso      1.000     C          0.150327  
         C23       1.0000    0.60350   0.07040   0.15380   Biso      1.000     C          -0.392148           
         C24       1.0000    0.07960   0.97520   0.31370   Biso      1.000     C          0.677714  
         C25       1.0000    0.88650   0.43780   0.10500   Biso      1.000     C          -0.422492           
         C26       1.0000    0.72890   0.44470   0.05880   Biso      1.000     C          0.121768  
         C27       1.0000    0.92040   0.47520   0.18630   Biso      1.000     C          0.677678  
         C28       1.0000    0.74210   0.79790   0.63380   Biso      1.000     C          0.173981  
         C29       1.0000    0.89150   0.84430   0.55860   Biso      1.000     C          0.14356   
         C30       1.0000    0.89150   0.65570   0.05860   Biso      1.000     C          0.144129  
         C31       1.0000    0.74210   0.70210   0.13380   Biso      1.000     C          0.173836  
         C32       1.0000    0.72010   0.82750   0.27830   Biso      1.000     C          0.172954  
         C33       1.0000    0.78240   0.76590   0.38390   Biso      1.000     C          0.150874  
         C34       1.0000    0.78240   0.73410   0.88390   Biso      1.000     C          0.147929  
         C35       1.0000    0.30470   0.69780   0.39740   Biso      1.000     C          0.576992  
         C36       1.0000    0.34820   0.65430   0.32680   Biso      1.000     C          0.102026  
         C37       1.0000    0.07960   0.52480   0.81370   Biso      1.000     C          0.679337  
         C38       1.0000    0.65180   0.15430   0.17320   Biso      1.000     C          0.102123  
         C39       1.0000    0.28840   0.58720   0.02370   Biso      1.000     C          0.579005  
         C40       1.0000    0.28840   0.91280   0.52370   Biso      1.000     C          0.57832   
         C41       1.0000    0.30470   0.80220   0.89740   Biso      1.000     C          0.577729  
         C42       1.0000    0.39650   0.57040   0.34620   Biso      1.000     C          -0.392133           
         C43       1.0000    0.34820   0.84570   0.82680   Biso      1.000     C          0.101769  
         C44       1.0000    0.39650   0.92960   0.84620   Biso      1.000     C          -0.392114           
         C45       1.0000    0.45410   0.52760   0.28200   Biso      1.000     C          0.669709  
         C46       1.0000    0.11350   0.56220   0.89500   Biso      1.000     C          -0.421256           
         C47       1.0000    0.45410   0.97240   0.78200   Biso      1.000     C          0.669869  
         C48       1.0000    0.27110   0.55530   0.94120   Biso      1.000     C          0.127404  
         Cu1       1.0000    0.40762   0.91917   0.29756   Biso      1.000     Cu          0.80855   
         Cu2       1.0000    0.46442   0.33263   0.02707   Biso      1.000     Cu          0.774924  
         Cu3       1.0000    0.20535   0.89733   0.67002   Biso      1.000     Cu          0.871958  
         Cu4       1.0000    0.59238   0.41917   0.20244   Biso      1.000     Cu          0.807548  
         Cu5       1.0000    0.00577   0.79571   0.78783   Biso      1.000     Cu          0.696117  
         Cu6       1.0000    0.79465   0.39733   0.82998   Biso      1.000     Cu          0.872558  
         Cu7       1.0000    0.53558   0.83263   0.47293   Biso      1.000     Cu          0.77396   
         Cu8       1.0000    0.99423   0.29571   0.71217   Biso      1.000     Cu          0.69466   
         Cu9       1.0000    0.00577   0.70429   0.28783   Biso      1.000     Cu          0.693978  
         Cu10      1.0000    0.79465   0.10267   0.32998   Biso      1.000     Cu          0.87085   
         Cu11      1.0000    0.20535   0.60267   0.17002   Biso      1.000     Cu          0.870524  
         Cu12      1.0000    0.53558   0.66737   0.97293   Biso      1.000     Cu          0.792035  
         Cu13      1.0000    0.40762   0.58083   0.79756   Biso      1.000     Cu          0.818529  
         Cu14      1.0000    0.59238   0.08083   0.70244   Biso      1.000     Cu          0.808775  
         Cu15      1.0000    0.99423   0.20429   0.21217   Biso      1.000     Cu          0.694632  
         Cu16      1.0000    0.46442   0.16737   0.52707   Biso      1.000     Cu          0.773677  
         H1        1.0000    0.16540   0.23090   0.07610   Biso      1.000     H          0.114534  
         H2        1.0000    0.03210   0.53920   0.92330   Biso      1.000     H          0.145911  
         H3        1.0000    0.96790   0.46080   0.07670   Biso      1.000     H          0.144752  
         H4        1.0000    0.91270   0.38090   0.11150   Biso      1.000     H          0.151519  
         H5        1.0000    0.51160   0.43090   0.60670   Biso      1.000     H          0.166478  
         H6        1.0000    0.08730   0.61910   0.88850   Biso      1.000     H          0.151466  
         H7        1.0000    0.70190   0.45770   0.64190   Biso      1.000     H          0.168987  
         H8        1.0000    0.55220   0.31860   0.68660   Biso      1.000     H          0.072094  
         H9        1.0000    0.55220   0.18140   0.18660   Biso      1.000     H          0.072234  
         H10       1.0000    0.16540   0.26910   0.57610   Biso      1.000     H          0.114548  
         H11       1.0000    0.69110   0.50090   0.05710   Biso      1.000     H          0.079779  
         H12       1.0000    0.30890   0.49910   0.94290   Biso      1.000     H          0.079161  
         H13       1.0000    0.48840   0.56910   0.39330   Biso      1.000     H          0.16672   
         H14       1.0000    0.29810   0.95770   0.85810   Biso      1.000     H          0.169001  
         H15       1.0000    0.28160   0.15450   0.77270   Biso      1.000     H          0.112018  
         H16       1.0000    0.44780   0.81860   0.81340   Biso      1.000     H          0.072767  
         H17       1.0000    0.29810   0.54230   0.35810   Biso      1.000     H          0.16893   
         H18       1.0000    0.44780   0.68140   0.31340   Biso      1.000     H          0.07211   
         H19       1.0000    0.83460   0.76910   0.92390   Biso      1.000     H          0.11438   
         H20       1.0000    0.83460   0.73090   0.42390   Biso      1.000     H          0.114521  
         H21       1.0000    0.71840   0.84550   0.22730   Biso      1.000     H          0.111983  
         H22       1.0000    0.65000   0.72280   0.15290   Biso      1.000     H          0.114457  
         H23       1.0000    0.92610   0.63670   0.01390   Biso      1.000     H          0.107932  
         H24       1.0000    0.92610   0.86330   0.51390   Biso      1.000     H          0.107341  
         H25       1.0000    0.65000   0.77720   0.65290   Biso      1.000     H          0.114344  
         H26       1.0000    0.48840   0.93090   0.89330   Biso      1.000     H          0.166828  
         H27       1.0000    0.35000   0.27720   0.84710   Biso      1.000     H          0.114131  
         H28       1.0000    0.71840   0.65450   0.72730   Biso      1.000     H          0.112232  
         H29       1.0000    0.03210   0.96080   0.42330   Biso      1.000     H          0.144684  
         H30       1.0000    0.69110   0.99910   0.55710   Biso      1.000     H          0.079929  
         H31       1.0000    0.96790   0.03920   0.57670   Biso      1.000     H          0.144742  
         H32       1.0000    0.08730   0.88090   0.38850   Biso      1.000     H          0.151549  
         H33       1.0000    0.30890   0.00090   0.44290   Biso      1.000     H          0.079903  
         H34       1.0000    0.07390   0.13670   0.48610   Biso      1.000     H          0.107236  
         H35       1.0000    0.91270   0.11910   0.61150   Biso      1.000     H          0.151657  
         H36       1.0000    0.07390   0.36330   0.98610   Biso      1.000     H          0.107315  
         H37       1.0000    0.28160   0.34550   0.27270   Biso      1.000     H          0.111938  
         H38       1.0000    0.51160   0.06910   0.10670   Biso      1.000     H          0.166591  
         H39       1.0000    0.70190   0.04230   0.14190   Biso      1.000     H          0.168819  
         H40       1.0000    0.35000   0.22280   0.34710   Biso      1.000     H          0.114361  
         N1        1.0000    0.34200   0.31390   0.11020   Biso      1.000     N          -0.200073           
         N2        1.0000    0.38200   0.35400   0.17940   Biso      1.000     N          -0.20233  
         N3        1.0000    0.17220   0.27200   0.18540   Biso      1.000     N          -0.332038           
         N4        1.0000    0.10500   0.18760   0.32220   Biso      1.000     N          -0.199831           
         N5        1.0000    0.01030   0.15830   0.37090   Biso      1.000     N          -0.197315           
         N6        1.0000    0.26520   0.18370   0.44110   Biso      1.000     N          -0.328805           
         N7        1.0000    0.89500   0.81240   0.67780   Biso      1.000     N          -0.200803           
         N8        1.0000    0.82780   0.72800   0.81460   Biso      1.000     N          -0.332593           
         N9        1.0000    0.61800   0.64600   0.82060   Biso      1.000     N          -0.205246           
         N10       1.0000    0.65800   0.68610   0.88980   Biso      1.000     N          -0.204415           
         N11       1.0000    0.26520   0.31630   0.94110   Biso      1.000     N          -0.329479           
         N12       1.0000    0.98970   0.65830   0.12910   Biso      1.000     N          -0.195409           
         N13       1.0000    0.17220   0.22800   0.68540   Biso      1.000     N          -0.332041           
         N14       1.0000    0.38200   0.14600   0.67940   Biso      1.000     N          -0.201508           
         N15       1.0000    0.34200   0.18610   0.61020   Biso      1.000     N          -0.201495           
         N16       1.0000    0.65800   0.81390   0.38980   Biso      1.000     N          -0.201417           
         N17       1.0000    0.98970   0.84170   0.62910   Biso      1.000     N          -0.196727           
         N18       1.0000    0.61800   0.85400   0.32060   Biso      1.000     N          -0.201312           
         N19       1.0000    0.82780   0.77200   0.31460   Biso      1.000     N          -0.332246           
         N20       1.0000    0.89500   0.68760   0.17780   Biso      1.000     N          -0.20002  
         N21       1.0000    0.73480   0.81630   0.55890   Biso      1.000     N          -0.329433           
         N22       1.0000    0.73480   0.68370   0.05890   Biso      1.000     N          -0.329254           
         N23       1.0000    0.01030   0.34170   0.87090   Biso      1.000     N          -0.196627           
         N24       1.0000    0.10500   0.31240   0.82220   Biso      1.000     N          -0.200473           
         O1        1.0000    0.19470   0.94220   0.56560   Biso      1.000     O          -0.51696  
         O2        1.0000    0.15570   0.77660   0.88970   Biso      1.000     O          -0.513403           
         O3        1.0000    0.41870   0.79350   0.95670   Biso      1.000     O          -0.54795  
         O4        1.0000    0.20990   0.83770   0.76260   Biso      1.000     O          -0.570041           
         O5        1.0000    0.41760   0.94880   0.71180   Biso      1.000     O          -0.563941           
         O6        1.0000    0.40120   0.86220   0.54720   Biso      1.000     O          -0.506108           
         O7        1.0000    0.53700   0.03630   0.79940   Biso      1.000     O          -0.514672           
         O8        1.0000    0.38240   0.89410   0.40110   Biso      1.000     O          -0.598906           
         O9        1.0000    0.06270   0.00440   0.71430   Biso      1.000     O          -0.575845           
         O10       1.0000    0.80210   0.47920   0.22270   Biso      1.000     O          -0.559601           
         O11       1.0000    0.15570   0.72340   0.38970   Biso      1.000     O          -0.514487           
         O12       1.0000    0.41870   0.70650   0.45670   Biso      1.000     O          -0.548187           
         O13       1.0000    0.20990   0.66230   0.26260   Biso      1.000     O          -0.571609           
         O14       1.0000    0.41760   0.55120   0.21180   Biso      1.000     O          -0.56374  
         O15       1.0000    0.53700   0.46370   0.29940   Biso      1.000     O          -0.515415           
         O16       1.0000    0.19470   0.55780   0.06560   Biso      1.000     O          -0.517591           
         O17       1.0000    0.40120   0.63780   0.04720   Biso      1.000     O          -0.50997  
         O18       1.0000    0.38240   0.60590   0.90110   Biso      1.000     O          -0.625692           
         O19       1.0000    0.19790   0.52080   0.77730   Biso      1.000     O          -0.564421           
         O20       1.0000    0.93730   0.50440   0.78570   Biso      1.000     O          -0.580662           
         O21       1.0000    0.84430   0.22340   0.11030   Biso      1.000     O          -0.514629           
         O22       1.0000    0.58130   0.20650   0.04330   Biso      1.000     O          -0.548731           
         O23       1.0000    0.79010   0.16230   0.23740   Biso      1.000     O          -0.572138           
         O24       1.0000    0.06270   0.49560   0.21430   Biso      1.000     O          -0.57543  
         O25       1.0000    0.58240   0.05120   0.28820   Biso      1.000     O          -0.56544  
         O26       1.0000    0.80530   0.05780   0.43440   Biso      1.000     O          -0.515214           
         O27       1.0000    0.59880   0.13780   0.45280   Biso      1.000     O          -0.505993           
         O28       1.0000    0.61760   0.10590   0.59890   Biso      1.000     O          -0.598711           
         O29       1.0000    0.80210   0.02080   0.72270   Biso      1.000     O          -0.559057           
         O30       1.0000    0.19790   0.97920   0.27730   Biso      1.000     O          -0.559017           
         O31       1.0000    0.84430   0.27660   0.61030   Biso      1.000     O          -0.514663           
         O32       1.0000    0.58130   0.29350   0.54330   Biso      1.000     O          -0.548581           
         O33       1.0000    0.79010   0.33770   0.73740   Biso      1.000     O          -0.571697           
         O34       1.0000    0.58240   0.44880   0.78820   Biso      1.000     O          -0.564614           
         O35       1.0000    0.46300   0.53630   0.70060   Biso      1.000     O          -0.515642           
         O36       1.0000    0.80530   0.44220   0.93440   Biso      1.000     O          -0.516807           
         O37       1.0000    0.59880   0.36220   0.95280   Biso      1.000     O          -0.506155           
         O38       1.0000    0.61760   0.39410   0.09890   Biso      1.000     O          -0.598897           
         O39       1.0000    0.46300   0.96370   0.20060   Biso      1.000     O          -0.515626           
         O40       1.0000    0.93730   0.99560   0.28570   Biso      1.000     O          -0.574953 