
##########################################################################
#               Crystallographic Information Format file
#               Produced by PyCifRW module
#
#  This is a CIF file.  CIF has been adopted by the International
#  Union of Crystallography as the standard for data archiving and
#  transmission.
#
#  For information on this file format, follow the CIF links at
#  http://www.iucr.org
##########################################################################

data_image0

_cell_length_a                          13.3961
_cell_length_b                          10.1579
_cell_length_c                          17.6555
_cell_angle_alpha                       90
_cell_angle_beta                        90.079
_cell_angle_gamma                       90
_symmetry_space_group_name_H-M          'P 1'
_symmetry_int_tables_number             1
loop_
  _symmetry_equiv_pos_as_xyz
         'x, y, z' 
loop_
  _atom_site_label
  _atom_site_occupancy
  _atom_site_fract_x
  _atom_site_fract_y
  _atom_site_fract_z
  _atom_site_thermal_displace_type
  _atom_site_B_iso_or_equiv
  _atom_site_type_symbol
  _atom_site_charge
         C1        1.0000    0.03800   0.10400   0.61115   Biso      1.000     C          0.6351680000000001  
         C2        1.0000    0.17870   0.23150   0.30980   Biso      1.000     C          -0.023883           
         C3        1.0000    0.23610   0.29130   0.25360   Biso      1.000     C          -0.10323199999999999          
         C4        1.0000    0.32940   0.85040   0.37000   Biso      1.000     C          0.613319  
         C5        1.0000    0.08730   0.33700   0.18072   Biso      1.000     C          -0.02452  
         C6        1.0000    0.25890   0.71870   0.26330   Biso      1.000     C          -0.101245           
         C7        1.0000    0.34200   0.77630   0.29713   Biso      1.000     C          -0.0053100000000000005        
         C8        1.0000    0.43460   0.76990   0.26220   Biso      1.000     C          -0.105097           
         C9        1.0000    0.36040   0.65240   0.15802   Biso      1.000     C          -0.043939           
         C10       1.0000    0.37200   0.58850   0.08288   Biso      1.000     C          0.608865  
         C11       1.0000    0.19110   0.15660   0.68890   Biso      1.000     C          -0.11407300000000001          
         C12       1.0000    0.26740   0.84140   0.69310   Biso      1.000     C          -0.099883           
         C13       1.0000    0.03050   0.22350   0.73680   Biso      1.000     C          -0.10513800000000001          
         C14       1.0000    0.44470   0.79420   0.69385   Biso      1.000     C          -0.089099           
         C15       1.0000    0.22910   0.32390   0.87870   Biso      1.000     C          0.609917  
         C16       1.0000    0.07510   0.27660   0.80090   Biso      1.000     C          -0.103154           
         C17       1.0000    0.17870   0.26850   0.80980   Biso      1.000     C          -0.023819999999999997         
         C18       1.0000    0.23610   0.20870   0.75360   Biso      1.000     C          -0.103399           
         C19       1.0000    0.07510   0.22340   0.30090   Biso      1.000     C          -0.103066           
         C20       1.0000    0.22910   0.17610   0.37870   Biso      1.000     C          0.610069  
         C21       1.0000    0.44470   0.70580   0.19385   Biso      1.000     C          -0.089209           
         C22       1.0000    0.03050   0.27650   0.23680   Biso      1.000     C          -0.10519500000000001          
         C23       1.0000    0.80890   0.84340   0.31110   Biso      1.000     C          -0.11408199999999999          
         C24       1.0000    0.73260   0.15860   0.30690   Biso      1.000     C          -0.09987599999999999          
         C25       1.0000    0.96950   0.77650   0.26320   Biso      1.000     C          -0.105108           
         C26       1.0000    0.55530   0.20580   0.30615   Biso      1.000     C          -0.089091           
         C27       1.0000    0.77090   0.67610   0.12130   Biso      1.000     C          0.6100720000000001  
         C28       1.0000    0.92490   0.72340   0.19910   Biso      1.000     C          -0.1031   
         C29       1.0000    0.82130   0.73150   0.19020   Biso      1.000     C          -0.023853           
         C30       1.0000    0.76390   0.79130   0.24640   Biso      1.000     C          -0.10326300000000001          
         C31       1.0000    0.32940   0.64960   0.87000   Biso      1.000     C          0.6132380000000001  
         C32       1.0000    0.67060   0.35040   0.13000   Biso      1.000     C          0.613312  
         C33       1.0000    0.74110   0.21870   0.23670   Biso      1.000     C          -0.10126  
         C34       1.0000    0.65800   0.27630   0.20287   Biso      1.000     C          -0.005236           
         C35       1.0000    0.56540   0.26990   0.23780   Biso      1.000     C          -0.10508800000000001          
         C36       1.0000    0.63960   0.15240   0.34198   Biso      1.000     C          -0.04401  
         C37       1.0000    0.62800   0.08850   0.41712   Biso      1.000     C          0.609312  
         C38       1.0000    0.03800   0.39600   0.11115   Biso      1.000     C          0.634865  
         C39       1.0000    0.19110   0.34340   0.18890   Biso      1.000     C          -0.11415499999999999          
         C40       1.0000    0.26740   0.65860   0.19310   Biso      1.000     C          -0.100052           
         C41       1.0000    0.91270   0.83700   0.31928   Biso      1.000     C          -0.024596           
         C42       1.0000    0.08730   0.16300   0.68072   Biso      1.000     C          -0.024674           
         C43       1.0000    0.96200   0.89600   0.38885   Biso      1.000     C          0.635173  
         C44       1.0000    0.25890   0.78130   0.76330   Biso      1.000     C          -0.101309           
         C45       1.0000    0.73260   0.34140   0.80690   Biso      1.000     C          -0.099848           
         C46       1.0000    0.96950   0.72350   0.76320   Biso      1.000     C          -0.10519400000000001          
         C47       1.0000    0.55530   0.29420   0.80615   Biso      1.000     C          -0.089098           
         C48       1.0000    0.77090   0.82390   0.62130   Biso      1.000     C          0.610047  
         C49       1.0000    0.92490   0.77660   0.69910   Biso      1.000     C          -0.103048           
         C50       1.0000    0.82130   0.76850   0.69020   Biso      1.000     C          -0.023871           
         C51       1.0000    0.76390   0.70870   0.74640   Biso      1.000     C          -0.10323199999999999          
         C52       1.0000    0.67060   0.14960   0.63000   Biso      1.000     C          0.61332   
         C53       1.0000    0.80890   0.65660   0.81110   Biso      1.000     C          -0.11416099999999998          
         C54       1.0000    0.74110   0.28130   0.73670   Biso      1.000     C          -0.101238           
         C55       1.0000    0.65800   0.22370   0.70287   Biso      1.000     C          -0.00518  
         C56       1.0000    0.91270   0.66300   0.81928   Biso      1.000     C          -0.02453  
         C57       1.0000    0.36040   0.84760   0.65802   Biso      1.000     C          -0.044008           
         C58       1.0000    0.34200   0.72370   0.79713   Biso      1.000     C          -0.0052380000000000005        
         C59       1.0000    0.56540   0.23010   0.73780   Biso      1.000     C          -0.105084           
         C60       1.0000    0.63960   0.34760   0.84198   Biso      1.000     C          -0.044074           
         C61       1.0000    0.37200   0.91150   0.58288   Biso      1.000     C          0.609213  
         C62       1.0000    0.62800   0.41150   0.91712   Biso      1.000     C          0.609372  
         C63       1.0000    0.96200   0.60400   0.88885   Biso      1.000     C          0.63484   
         C64       1.0000    0.43460   0.73010   0.76220   Biso      1.000     C          -0.10513099999999999          
         H1        1.0000    0.04000   0.72850   0.76890   Biso      1.000     H          0.115025  
         H2        1.0000    0.50860   0.69780   0.17106   Biso      1.000     H          0.11777   
         H3        1.0000    0.76930   0.88300   0.34940   Biso      1.000     H          0.11392100000000001           
         H4        1.0000    0.96000   0.27150   0.23110   Biso      1.000     H          0.11501700000000001           
         H5        1.0000    0.19630   0.77950   0.78840   Biso      1.000     H          0.123098  
         H6        1.0000    0.21020   0.62190   0.16910   Biso      1.000     H          0.114979  
         H7        1.0000    0.78980   0.12190   0.33090   Biso      1.000     H          0.11504400000000001           
         H8        1.0000    0.23070   0.38300   0.15060   Biso      1.000     H          0.113944  
         H9        1.0000    0.50900   0.19020   0.71460   Biso      1.000     H          0.119023  
         H10       1.0000    0.50900   0.30980   0.21460   Biso      1.000     H          0.119004  
         H11       1.0000    0.69350   0.70330   0.74050   Biso      1.000     H          0.11865   
         H12       1.0000    0.80370   0.22050   0.21160   Biso      1.000     H          0.12310399999999999           
         H13       1.0000    0.04000   0.77150   0.26890   Biso      1.000     H          0.115031  
         H14       1.0000    0.80370   0.27950   0.71160   Biso      1.000     H          0.123125  
         H15       1.0000    0.69350   0.79670   0.24050   Biso      1.000     H          0.118654  
         H16       1.0000    0.49140   0.19780   0.32894   Biso      1.000     H          0.11778800000000002           
         H17       1.0000    0.96450   0.68180   0.16150   Biso      1.000     H          0.119032  
         H18       1.0000    0.96450   0.81820   0.66150   Biso      1.000     H          0.119052  
         H19       1.0000    0.03550   0.18180   0.33850   Biso      1.000     H          0.11904   
         H20       1.0000    0.49140   0.30220   0.82894   Biso      1.000     H          0.117743  
         H21       1.0000    0.30650   0.29670   0.25950   Biso      1.000     H          0.118645  
         H22       1.0000    0.76930   0.61700   0.84940   Biso      1.000     H          0.11390499999999999           
         H23       1.0000    0.49100   0.69020   0.78540   Biso      1.000     H          0.118998  
         H24       1.0000    0.19630   0.72050   0.28840   Biso      1.000     H          0.12309400000000001           
         H25       1.0000    0.30650   0.20330   0.75950   Biso      1.000     H          0.118628  
         H26       1.0000    0.03550   0.31820   0.83850   Biso      1.000     H          0.11902   
         H27       1.0000    0.49100   0.80980   0.28540   Biso      1.000     H          0.118993  
         H28       1.0000    0.78980   0.37810   0.83090   Biso      1.000     H          0.115048  
         H29       1.0000    0.50860   0.80220   0.67106   Biso      1.000     H          0.117779  
         H30       1.0000    0.23070   0.11700   0.65060   Biso      1.000     H          0.113907  
         H31       1.0000    0.96000   0.22850   0.73110   Biso      1.000     H          0.114998  
         H32       1.0000    0.21020   0.87810   0.66910   Biso      1.000     H          0.115049  
         Mn1       1.0000    0.15350   0.57582   0.98461   Biso      1.000     Mn          1.119305  
         Mn2       1.0000    0.38883   0.08167   0.46811   Biso      1.000     Mn          1.0336290000000001  
         Mn3       1.0000    0.38883   0.41833   0.96811   Biso      1.000     Mn          1.0339209999999999  
         Mn4       1.0000    0.61117   0.58167   0.03189   Biso      1.000     Mn          1.033004  
         Mn5       1.0000    0.15350   0.92418   0.48461   Biso      1.000     Mn          1.1193739999999999  
         Mn6       1.0000    0.61117   0.91833   0.53189   Biso      1.000     Mn          1.033628  
         Mn7       1.0000    0.84650   0.42418   0.01539   Biso      1.000     Mn          1.118847  
         Mn8       1.0000    0.84650   0.07582   0.51539   Biso      1.000     Mn          1.119358  
         O1        1.0000    0.81950   0.89830   0.57794   Biso      1.000     O          -0.5927939999999999           
         O2        1.0000    0.68100   0.70950   0.10982   Biso      1.000     O          -0.562588           
         O3        1.0000    0.81950   0.60170   0.07794   Biso      1.000     O          -0.592753           
         O4        1.0000    0.74110   0.31830   0.08701   Biso      1.000     O          -0.581358           
         O5        1.0000    0.60790   0.44040   0.11818   Biso      1.000     O          -0.5687439999999999           
         O6        1.0000    0.54646   0.09760   0.45199   Biso      1.000     O          -0.566653           
         O7        1.0000    0.70009   0.02340   0.44566   Biso      1.000     O          -0.596083           
         O8        1.0000    0.91540   0.98520   0.42297   Biso      1.000     O          -0.609575           
         O9        1.0000    0.91540   0.51480   0.92297   Biso      1.000     O          -0.6092029999999999           
         O10       1.0000    0.70009   0.47660   0.94566   Biso      1.000     O          -0.59588  
         O11       1.0000    0.54646   0.40240   0.95199   Biso      1.000     O          -0.566612           
         O12       1.0000    0.60790   0.05960   0.61818   Biso      1.000     O          -0.568815           
         O13       1.0000    0.74110   0.18170   0.58701   Biso      1.000     O          -0.581385           
         O14       1.0000    0.08460   0.48520   0.07703   Biso      1.000     O          -0.609202           
         O15       1.0000    0.29991   0.52340   0.05434   Biso      1.000     O          -0.595957           
         O16       1.0000    0.45354   0.59760   0.04801   Biso      1.000     O          -0.566505           
         O17       1.0000    0.04560   0.64930   0.90674   Biso      1.000     O          -0.565122           
         O18       1.0000    0.25890   0.81830   0.41299   Biso      1.000     O          -0.581399           
         O19       1.0000    0.08460   0.01480   0.57703   Biso      1.000     O          -0.609579           
         O20       1.0000    0.29991   0.97660   0.55434   Biso      1.000     O          -0.596082           
         O21       1.0000    0.45354   0.90240   0.54801   Biso      1.000     O          -0.5666979999999999           
         O22       1.0000    0.39210   0.55960   0.88182   Biso      1.000     O          -0.5686859999999999           
         O23       1.0000    0.25890   0.68170   0.91299   Biso      1.000     O          -0.5809949999999999           
         O24       1.0000    0.18050   0.39830   0.92206   Biso      1.000     O          -0.593331           
         O25       1.0000    0.18050   0.10170   0.42206   Biso      1.000     O          -0.592781           
         O26       1.0000    0.95440   0.14930   0.59326   Biso      1.000     O          -0.565817           
         O27       1.0000    0.04560   0.85070   0.40674   Biso      1.000     O          -0.565774           
         O28       1.0000    0.31900   0.20950   0.39018   Biso      1.000     O          -0.562712           
         O29       1.0000    0.95440   0.35070   0.09326   Biso      1.000     O          -0.565376           
         O30       1.0000    0.68100   0.79050   0.60982   Biso      1.000     O          -0.562705           
         O31       1.0000    0.39210   0.94040   0.38182   Biso      1.000     O          -0.56886  
         O32       1.0000    0.31900   0.29050   0.89018   Biso      1.000     O          -0.5623060000000001 