
##########################################################################
#               Crystallographic Information Format file
#               Produced by PyCifRW module
#
#  This is a CIF file.  CIF has been adopted by the International
#  Union of Crystallography as the standard for data archiving and
#  transmission.
#
#  For information on this file format, follow the CIF links at
#  http://www.iucr.org
##########################################################################

data_image0

_cell_length_a                          13.6353
_cell_length_b                          10.2259
_cell_length_c                          17.6925
_cell_angle_alpha                       90
_cell_angle_beta                        90.704
_cell_angle_gamma                       90
_symmetry_space_group_name_H-M          'P 1'
_symmetry_int_tables_number             1
loop_
  _symmetry_equiv_pos_as_xyz
         'x, y, z' 
loop_
  _atom_site_label
  _atom_site_occupancy
  _atom_site_fract_x
  _atom_site_fract_y
  _atom_site_fract_z
  _atom_site_thermal_displace_type
  _atom_site_B_iso_or_equiv
  _atom_site_type_symbol
  _atom_site_charge
         C1        1.0000    0.95718   0.10180   0.89010   Biso      1.000     C          0.645305  
         C2        1.0000    0.91948   0.22470   0.20183   Biso      1.000     C          -0.103952           
         C3        1.0000    0.96363   0.27820   0.26575   Biso      1.000     C          -0.107921           
         C4        1.0000    0.90876   0.33850   0.32092   Biso      1.000     C          -0.023453           
         C5        1.0000    0.80772   0.34340   0.31166   Biso      1.000     C          -0.11221600000000001          
         C6        1.0000    0.76364   0.29090   0.24772   Biso      1.000     C          -0.10778  
         C7        1.0000    0.81896   0.23240   0.19223   Biso      1.000     C          -0.020196000000000002         
         C8        1.0000    0.76927   0.17630   0.12298   Biso      1.000     C          0.615714  
         C9        1.0000    0.37261   0.08640   0.08246   Biso      1.000     C          0.61433   
         C10       1.0000    0.62739   0.91360   0.91754   Biso      1.000     C          0.614314  
         C11       1.0000    0.74289   0.77590   0.74239   Biso      1.000     C          -0.10251800000000001          
         C12       1.0000    0.73268   0.83750   0.81183   Biso      1.000     C          -0.10187  
         C13       1.0000    0.64058   0.84630   0.84370   Biso      1.000     C          -0.039148           
         C14       1.0000    0.55918   0.79320   0.80617   Biso      1.000     C          -0.095637           
         C15       1.0000    0.57090   0.72820   0.73869   Biso      1.000     C          -0.10681700000000001          
         C16       1.0000    0.66312   0.71940   0.70635   Biso      1.000     C          -0.008003           
         C17       1.0000    0.67571   0.64670   0.63335   Biso      1.000     C          0.621405  
         C18       1.0000    0.91948   0.27530   0.70183   Biso      1.000     C          -0.10389200000000001          
         C19       1.0000    0.96363   0.22180   0.76575   Biso      1.000     C          -0.10789100000000001          
         C20       1.0000    0.90876   0.16150   0.82092   Biso      1.000     C          -0.023526           
         C21       1.0000    0.67571   0.85330   0.13335   Biso      1.000     C          0.621491  
         C22       1.0000    0.80772   0.15660   0.81166   Biso      1.000     C          -0.11221500000000001          
         C23       1.0000    0.66312   0.78060   0.20635   Biso      1.000     C          -0.008072           
         C24       1.0000    0.55918   0.70680   0.30617   Biso      1.000     C          -0.095623           
         C25       1.0000    0.25711   0.22410   0.25761   Biso      1.000     C          -0.10251099999999999          
         C26       1.0000    0.26732   0.16250   0.18817   Biso      1.000     C          -0.101871           
         C27       1.0000    0.35942   0.15370   0.15630   Biso      1.000     C          -0.039157           
         C28       1.0000    0.44082   0.20680   0.19383   Biso      1.000     C          -0.095618           
         C29       1.0000    0.42910   0.27180   0.26131   Biso      1.000     C          -0.10680799999999999          
         C30       1.0000    0.33688   0.28060   0.29365   Biso      1.000     C          -0.007996           
         C31       1.0000    0.32429   0.35330   0.36665   Biso      1.000     C          0.621402  
         C32       1.0000    0.08052   0.72470   0.29817   Biso      1.000     C          -0.10389000000000001          
         C33       1.0000    0.03637   0.77820   0.23425   Biso      1.000     C          -0.10788199999999999          
         C34       1.0000    0.09124   0.83850   0.17908   Biso      1.000     C          -0.023526           
         C35       1.0000    0.19228   0.84340   0.18834   Biso      1.000     C          -0.112225           
         C36       1.0000    0.23636   0.79090   0.25228   Biso      1.000     C          -0.107774           
         C37       1.0000    0.18104   0.73240   0.30777   Biso      1.000     C          -0.020113           
         C38       1.0000    0.23073   0.67630   0.37702   Biso      1.000     C          0.615644  
         C39       1.0000    0.95718   0.39820   0.39010   Biso      1.000     C          0.645145  
         C40       1.0000    0.62739   0.58640   0.41754   Biso      1.000     C          0.614265  
         C41       1.0000    0.74289   0.72410   0.24239   Biso      1.000     C          -0.102521           
         C42       1.0000    0.73268   0.66250   0.31183   Biso      1.000     C          -0.101845           
         C43       1.0000    0.64058   0.65370   0.34370   Biso      1.000     C          -0.039080000000000004         
         C44       1.0000    0.57090   0.77180   0.23869   Biso      1.000     C          -0.10683  
         C45       1.0000    0.76364   0.20910   0.74772   Biso      1.000     C          -0.10777300000000001          
         C46       1.0000    0.04282   0.89820   0.10990   Biso      1.000     C          0.645307  
         C47       1.0000    0.76927   0.32370   0.62298   Biso      1.000     C          0.615648  
         C48       1.0000    0.25711   0.27590   0.75761   Biso      1.000     C          -0.102521           
         C49       1.0000    0.26732   0.33750   0.68817   Biso      1.000     C          -0.10184  
         C50       1.0000    0.35942   0.34630   0.65630   Biso      1.000     C          -0.039069           
         C51       1.0000    0.44082   0.29320   0.69383   Biso      1.000     C          -0.095613           
         C52       1.0000    0.42910   0.22820   0.76131   Biso      1.000     C          -0.10681600000000001          
         C53       1.0000    0.81896   0.26760   0.69223   Biso      1.000     C          -0.020111           
         C54       1.0000    0.37261   0.41360   0.58246   Biso      1.000     C          0.614264  
         C55       1.0000    0.32429   0.14670   0.86665   Biso      1.000     C          0.6215189999999999  
         C56       1.0000    0.03637   0.72180   0.73425   Biso      1.000     C          -0.10790999999999999          
         C57       1.0000    0.09124   0.66150   0.67908   Biso      1.000     C          -0.023443000000000002         
         C58       1.0000    0.19228   0.65660   0.68834   Biso      1.000     C          -0.11221300000000001          
         C59       1.0000    0.23636   0.70910   0.75228   Biso      1.000     C          -0.107776           
         C60       1.0000    0.18104   0.76760   0.80777   Biso      1.000     C          -0.020211           
         C61       1.0000    0.23073   0.82370   0.87702   Biso      1.000     C          0.615741  
         C62       1.0000    0.08052   0.77530   0.79817   Biso      1.000     C          -0.10394  
         C63       1.0000    0.04282   0.60180   0.60990   Biso      1.000     C          0.645141  
         C64       1.0000    0.33688   0.21940   0.79365   Biso      1.000     C          -0.008081           
         H1        1.0000    0.80420   0.72730   0.21990   Biso      1.000     H          0.12229300000000001           
         H2        1.0000    0.96860   0.72650   0.72840   Biso      1.000     H          0.11528599999999999           
         H3        1.0000    0.78710   0.87250   0.83670   Biso      1.000     H          0.113775  
         H4        1.0000    0.49710   0.69820   0.32670   Biso      1.000     H          0.118547  
         H5        1.0000    0.04250   0.81640   0.83450   Biso      1.000     H          0.11779   
         H6        1.0000    0.51700   0.81000   0.21470   Biso      1.000     H          0.11992799999999999           
         H7        1.0000    0.95750   0.31640   0.66550   Biso      1.000     H          0.117845  
         H8        1.0000    0.23060   0.61790   0.65140   Biso      1.000     H          0.11268   
         H9        1.0000    0.95750   0.18360   0.16550   Biso      1.000     H          0.11778399999999999           
         H10       1.0000    0.48300   0.19000   0.78530   Biso      1.000     H          0.11993599999999999           
         H11       1.0000    0.03140   0.27350   0.27160   Biso      1.000     H          0.11528   
         H12       1.0000    0.50290   0.30180   0.67330   Biso      1.000     H          0.11855399999999999           
         H13       1.0000    0.76940   0.38210   0.34860   Biso      1.000     H          0.112677  
         H14       1.0000    0.51700   0.69000   0.71470   Biso      1.000     H          0.11994500000000001           
         H15       1.0000    0.78710   0.62750   0.33670   Biso      1.000     H          0.11381199999999998           
         H16       1.0000    0.30420   0.70500   0.75800   Biso      1.000     H          0.11879100000000001           
         H17       1.0000    0.69580   0.29500   0.24200   Biso      1.000     H          0.118789  
         H18       1.0000    0.49710   0.80180   0.82670   Biso      1.000     H          0.118528  
         H19       1.0000    0.80420   0.77270   0.71990   Biso      1.000     H          0.12231800000000001           
         H20       1.0000    0.19580   0.22730   0.28010   Biso      1.000     H          0.122322  
         H21       1.0000    0.19580   0.27270   0.78010   Biso      1.000     H          0.122296  
         H22       1.0000    0.21290   0.12750   0.16330   Biso      1.000     H          0.113771  
         H23       1.0000    0.50290   0.19820   0.17330   Biso      1.000     H          0.11853699999999999           
         H24       1.0000    0.48300   0.31000   0.28530   Biso      1.000     H          0.119952  
         H25       1.0000    0.21290   0.37250   0.66330   Biso      1.000     H          0.11381600000000001           
         H26       1.0000    0.03140   0.22650   0.77160   Biso      1.000     H          0.11528499999999998           
         H27       1.0000    0.96860   0.77350   0.22840   Biso      1.000     H          0.11529   
         H28       1.0000    0.69580   0.20500   0.74200   Biso      1.000     H          0.118806  
         H29       1.0000    0.23060   0.88210   0.15140   Biso      1.000     H          0.112659  
         H30       1.0000    0.30420   0.79500   0.25800   Biso      1.000     H          0.118806  
         H31       1.0000    0.76940   0.11790   0.84860   Biso      1.000     H          0.11266300000000001           
         H32       1.0000    0.04250   0.68360   0.33450   Biso      1.000     H          0.11784700000000001           
         Mn1       1.0000    0.15231   0.42981   0.48044   Biso      1.000     Mn          1.1168639999999999  
         Mn2       1.0000    0.15231   0.07019   0.98044   Biso      1.000     Mn          1.118156  
         Mn3       1.0000    0.38998   0.57972   0.46582   Biso      1.000     Mn          1.037584  
         Mn4       1.0000    0.61002   0.42028   0.53418   Biso      1.000     Mn          1.0375809999999999  
         Mn5       1.0000    0.38998   0.92028   0.96582   Biso      1.000     Mn          1.037591  
         Mn6       1.0000    0.84769   0.57019   0.51956   Biso      1.000     Mn          1.1168770000000001  
         Mn7       1.0000    0.61002   0.07972   0.03418   Biso      1.000     Mn          1.037542  
         Mn8       1.0000    0.84769   0.92981   0.01956   Biso      1.000     Mn          1.117725  
         O1        1.0000    0.74878   0.82748   0.09471   Biso      1.000     O          -0.581571           
         O2        1.0000    0.45454   0.41015   0.55139   Biso      1.000     O          -0.571609           
         O3        1.0000    0.69793   0.52475   0.44807   Biso      1.000     O          -0.595492           
         O4        1.0000    0.09025   0.52068   0.57364   Biso      1.000     O          -0.605356           
         O5        1.0000    0.18200   0.89201   0.92125   Biso      1.000     O          -0.591434           
         O6        1.0000    0.67985   0.20390   0.11291   Biso      1.000     O          -0.567078           
         O7        1.0000    0.95763   0.63740   0.59482   Biso      1.000     O          -0.576234           
         O8        1.0000    0.30207   0.47525   0.55193   Biso      1.000     O          -0.59549  
         O9        1.0000    0.60997   0.93393   0.11661   Biso      1.000     O          -0.572597           
         O10       1.0000    0.32015   0.79610   0.88709   Biso      1.000     O          -0.567051           
         O11       1.0000    0.39003   0.06607   0.88339   Biso      1.000     O          -0.572566           
         O12       1.0000    0.25122   0.17252   0.90529   Biso      1.000     O          -0.581597           
         O13       1.0000    0.81800   0.10799   0.07875   Biso      1.000     O          -0.591411           
         O14       1.0000    0.90975   0.02068   0.92636   Biso      1.000     O          -0.605421           
         O15       1.0000    0.04237   0.13740   0.90518   Biso      1.000     O          -0.576287           
         O16       1.0000    0.74878   0.67252   0.59471   Biso      1.000     O          -0.581462           
         O17       1.0000    0.69793   0.97525   0.94807   Biso      1.000     O          -0.595598           
         O18       1.0000    0.67985   0.29610   0.61291   Biso      1.000     O          -0.567128           
         O19       1.0000    0.39003   0.43393   0.38339   Biso      1.000     O          -0.5726220000000001           
         O20       1.0000    0.32015   0.70390   0.38709   Biso      1.000     O          -0.567126           
         O21       1.0000    0.30207   0.02475   0.05193   Biso      1.000     O          -0.5956560000000001           
         O22       1.0000    0.25122   0.32748   0.40529   Biso      1.000     O          -0.5814590000000001           
         O23       1.0000    0.18200   0.60799   0.42125   Biso      1.000     O          -0.591258           
         O24       1.0000    0.09025   0.97932   0.07364   Biso      1.000     O          -0.605477           
         O25       1.0000    0.45454   0.08985   0.05139   Biso      1.000     O          -0.57157  
         O26       1.0000    0.95763   0.86260   0.09482   Biso      1.000     O          -0.57622  
         O27       1.0000    0.54546   0.91015   0.94861   Biso      1.000     O          -0.571601           
         O28       1.0000    0.60997   0.56607   0.61661   Biso      1.000     O          -0.572628           
         O29       1.0000    0.04237   0.36260   0.40518   Biso      1.000     O          -0.576241           
         O30       1.0000    0.54546   0.58985   0.44861   Biso      1.000     O          -0.571617           
         O31       1.0000    0.81800   0.39201   0.57875   Biso      1.000     O          -0.591256           
         O32       1.0000    0.90975   0.47932   0.42636   Biso      1.000     O          -0.60536 