
##########################################################################
#               Crystallographic Information Format file
#               Produced by PyCifRW module
#
#  This is a CIF file.  CIF has been adopted by the International
#  Union of Crystallography as the standard for data archiving and
#  transmission.
#
#  For information on this file format, follow the CIF links at
#  http://www.iucr.org
##########################################################################

data_image0

_cell_length_a                          10.162
_cell_length_b                          13.414
_cell_length_c                          17.653
_cell_angle_alpha                       90.21
_cell_angle_beta                        90
_cell_angle_gamma                       90
_symmetry_space_group_name_H-M          'P 1'
_symmetry_int_tables_number             1
loop_
  _symmetry_equiv_pos_as_xyz
         'x, y, z' 
loop_
  _atom_site_label
  _atom_site_occupancy
  _atom_site_fract_x
  _atom_site_fract_y
  _atom_site_fract_z
  _atom_site_thermal_displace_type
  _atom_site_B_iso_or_equiv
  _atom_site_type_symbol
  _atom_site_charge
         C1        1.0000    0.72301   0.92452   0.19916   Biso      1.000     C          -0.102499           
         C2        1.0000    0.77652   0.96934   0.26342   Biso      1.000     C          -0.10600899999999999          
         C3        1.0000    0.84307   0.80908   0.31106   Biso      1.000     C          -0.11101099999999998          
         C4        1.0000    0.32383   0.22899   0.87870   Biso      1.000     C          0.6115079999999999  
         C5        1.0000    0.79104   0.76410   0.24683   Biso      1.000     C          -0.10273099999999999          
         C6        1.0000    0.73126   0.82110   0.19039   Biso      1.000     C          -0.023482           
         C7        1.0000    0.67617   0.77101   0.12130   Biso      1.000     C          0.6113770000000001  
         C8        1.0000    0.14895   0.67051   0.62980   Biso      1.000     C          0.615535  
         C9        1.0000    0.22337   0.65868   0.70305   Biso      1.000     C          -0.00656  
         C10       1.0000    0.22974   0.56537   0.73765   Biso      1.000     C          -0.108044           
         C11       1.0000    0.83702   0.91239   0.31951   Biso      1.000     C          -0.023349           
         C12       1.0000    0.28125   0.74140   0.73693   Biso      1.000     C          -0.101314           
         C13       1.0000    0.34139   0.73280   0.80747   Biso      1.000     C          -0.099719           
         C14       1.0000    0.34747   0.63943   0.84204   Biso      1.000     C          -0.045146           
         C15       1.0000    0.41136   0.62841   0.91728   Biso      1.000     C          0.61042   
         C16       1.0000    0.39582   0.03844   0.11119   Biso      1.000     C          0.635292  
         C17       1.0000    0.33702   0.08761   0.18049   Biso      1.000     C          -0.024694           
         C18       1.0000    0.27652   0.03066   0.23658   Biso      1.000     C          -0.10612100000000001          
         C19       1.0000    0.34307   0.19092   0.18894   Biso      1.000     C          -0.11187000000000001          
         C20       1.0000    0.22301   0.07548   0.30084   Biso      1.000     C          -0.10415899999999999          
         C21       1.0000    0.29104   0.23590   0.25317   Biso      1.000     C          -0.10434500000000001          
         C22       1.0000    0.29435   0.55535   0.80645   Biso      1.000     C          -0.088887           
         C23       1.0000    0.23126   0.17890   0.30961   Biso      1.000     C          -0.021851           
         C24       1.0000    0.89582   0.96156   0.38881   Biso      1.000     C          0.630748  
         C25       1.0000    0.15253   0.63943   0.34204   Biso      1.000     C          -0.045135           
         C26       1.0000    0.77026   0.43463   0.26235   Biso      1.000     C          -0.107626           
         C27       1.0000    0.71875   0.25860   0.26307   Biso      1.000     C          -0.101129           
         C28       1.0000    0.70565   0.44465   0.19355   Biso      1.000     C          -0.088805           
         C29       1.0000    0.65861   0.26720   0.19253   Biso      1.000     C          -0.099299           
         C30       1.0000    0.65253   0.36057   0.15796   Biso      1.000     C          -0.044238           
         C31       1.0000    0.58864   0.37159   0.08272   Biso      1.000     C          0.6102390000000001  
         C32       1.0000    0.60418   0.96156   0.88881   Biso      1.000     C          0.635312  
         C33       1.0000    0.66298   0.91239   0.81951   Biso      1.000     C          -0.023878           
         C34       1.0000    0.72348   0.96934   0.76342   Biso      1.000     C          -0.105475           
         C35       1.0000    0.08864   0.62841   0.41728   Biso      1.000     C          0.610341  
         C36       1.0000    0.65693   0.80908   0.81106   Biso      1.000     C          -0.111858           
         C37       1.0000    0.70896   0.76410   0.74683   Biso      1.000     C          -0.10321199999999998          
         C38       1.0000    0.76874   0.82110   0.69039   Biso      1.000     C          -0.024132           
         C39       1.0000    0.82383   0.77101   0.62130   Biso      1.000     C          0.6116229999999999  
         C40       1.0000    0.35105   0.67051   0.12980   Biso      1.000     C          0.615467  
         C41       1.0000    0.27663   0.65868   0.20305   Biso      1.000     C          -0.00665  
         C42       1.0000    0.27026   0.56537   0.23765   Biso      1.000     C          -0.108126           
         C43       1.0000    0.21875   0.74140   0.23693   Biso      1.000     C          -0.10141499999999999          
         C44       1.0000    0.20565   0.55535   0.30645   Biso      1.000     C          -0.088921           
         C45       1.0000    0.15861   0.73280   0.30747   Biso      1.000     C          -0.099944           
         C46       1.0000    0.77699   0.92452   0.69916   Biso      1.000     C          -0.10285699999999999          
         C47       1.0000    0.17617   0.22899   0.37870   Biso      1.000     C          0.605711  
         C48       1.0000    0.64895   0.32949   0.87020   Biso      1.000     C          0.615542  
         C49       1.0000    0.72337   0.34132   0.79695   Biso      1.000     C          -0.006689           
         C50       1.0000    0.10418   0.03844   0.61119   Biso      1.000     C          0.628758  
         C51       1.0000    0.16298   0.08761   0.68049   Biso      1.000     C          -0.022050999999999998         
         C52       1.0000    0.22348   0.03066   0.73658   Biso      1.000     C          -0.105995           
         C53       1.0000    0.15693   0.19092   0.68894   Biso      1.000     C          -0.111668           
         C54       1.0000    0.27699   0.07548   0.80084   Biso      1.000     C          -0.103157           
         C55       1.0000    0.20896   0.23590   0.75317   Biso      1.000     C          -0.103033           
         C56       1.0000    0.26874   0.17890   0.80961   Biso      1.000     C          -0.024249           
         C57       1.0000    0.77663   0.34132   0.29695   Biso      1.000     C          -0.006642           
         C58       1.0000    0.85105   0.32949   0.37020   Biso      1.000     C          0.612632  
         C59       1.0000    0.72974   0.43463   0.76235   Biso      1.000     C          -0.108449           
         C60       1.0000    0.78125   0.25860   0.76307   Biso      1.000     C          -0.101624           
         C61       1.0000    0.79435   0.44465   0.69355   Biso      1.000     C          -0.089196           
         C62       1.0000    0.84139   0.26720   0.69253   Biso      1.000     C          -0.09875700000000001          
         C63       1.0000    0.84747   0.36057   0.65796   Biso      1.000     C          -0.044643           
         C64       1.0000    0.91136   0.37159   0.58272   Biso      1.000     C          0.607901  
         H1        1.0000    0.20390   0.30630   0.75890   Biso      1.000     H          0.118477  
         H2        1.0000    0.27180   0.96030   0.23080   Biso      1.000     H          0.114976  
         H3        1.0000    0.38280   0.23050   0.15070   Biso      1.000     H          0.112825  
         H4        1.0000    0.18120   0.03610   0.33840   Biso      1.000     H          0.11972100000000001           
         H5        1.0000    0.29610   0.30630   0.25890   Biso      1.000     H          0.11838   
         H6        1.0000    0.87780   0.21030   0.66820   Biso      1.000     H          0.114764  
         H7        1.0000    0.77980   0.19600   0.78810   Biso      1.000     H          0.12364000000000001           
         H8        1.0000    0.80240   0.50840   0.67070   Biso      1.000     H          0.117682  
         H9        1.0000    0.37780   0.78970   0.83180   Biso      1.000     H          0.114379  
         H10       1.0000    0.22820   0.96030   0.73080   Biso      1.000     H          0.115247  
         H11       1.0000    0.69010   0.49100   0.78580   Biso      1.000     H          0.12055899999999999           
         H12       1.0000    0.30240   0.49160   0.82930   Biso      1.000     H          0.117801  
         H13       1.0000    0.27980   0.80400   0.71190   Biso      1.000     H          0.12371900000000001           
         H14       1.0000    0.19010   0.50900   0.71420   Biso      1.000     H          0.120727  
         H15       1.0000    0.80990   0.49100   0.28580   Biso      1.000     H          0.12075799999999999           
         H16       1.0000    0.72020   0.19600   0.28810   Biso      1.000     H          0.123733  
         H17       1.0000    0.69760   0.50840   0.17070   Biso      1.000     H          0.117905  
         H18       1.0000    0.62220   0.21030   0.16820   Biso      1.000     H          0.11456300000000001           
         H19       1.0000    0.72820   0.03970   0.76920   Biso      1.000     H          0.115352  
         H20       1.0000    0.61720   0.76950   0.84930   Biso      1.000     H          0.11291   
         H21       1.0000    0.81880   0.96390   0.66160   Biso      1.000     H          0.11964000000000001           
         H22       1.0000    0.31880   0.03610   0.83840   Biso      1.000     H          0.119341  
         H23       1.0000    0.70390   0.69370   0.74110   Biso      1.000     H          0.118485  
         H24       1.0000    0.22020   0.80400   0.21190   Biso      1.000     H          0.12371199999999999           
         H25       1.0000    0.19760   0.49160   0.32930   Biso      1.000     H          0.11780499999999999           
         H26       1.0000    0.12220   0.78970   0.33180   Biso      1.000     H          0.114284  
         H27       1.0000    0.11720   0.23050   0.65070   Biso      1.000     H          0.11348   
         H28       1.0000    0.88280   0.76950   0.34930   Biso      1.000     H          0.11318099999999999           
         H29       1.0000    0.68120   0.96390   0.16160   Biso      1.000     H          0.119618  
         H30       1.0000    0.79610   0.69370   0.24110   Biso      1.000     H          0.11876700000000001           
         H31       1.0000    0.30990   0.50900   0.21420   Biso      1.000     H          0.120726  
         H32       1.0000    0.77180   0.03970   0.26920   Biso      1.000     H          0.115433  
         Mn1       1.0000    0.08158   0.38887   0.46798   Biso      1.000     Mn          1.035048  
         Mn2       1.0000    0.57555   0.15350   0.98457   Biso      1.000     Mn          1.1189040000000001  
         Mn3       1.0000    0.41842   0.38887   0.96798   Biso      1.000     Mn          1.034032  
         Mn4       1.0000    0.07555   0.84650   0.51543   Biso      1.000     Mn          1.120052  
         Mn5       1.0000    0.91842   0.61113   0.53202   Biso      1.000     Mn          1.033775  
         Mn6       1.0000    0.42445   0.84650   0.01543   Biso      1.000     Mn          1.119381  
         Mn7       1.0000    0.58158   0.61113   0.03202   Biso      1.000     Mn          1.034381  
         Mn8       1.0000    0.92445   0.15350   0.48457   Biso      1.000     Mn          1.003004  
         O1        1.0000    0.09710   0.54656   0.45186   Biso      1.000     O          -0.570207           
         O2        1.0000    0.44013   0.60797   0.11807   Biso      1.000     O          -0.565571           
         O3        1.0000    0.31880   0.74118   0.08729   Biso      1.000     O          -0.583724           
         O4        1.0000    0.79083   0.68107   0.60992   Biso      1.000     O          -0.564749           
         O5        1.0000    0.89796   0.81936   0.57812   Biso      1.000     O          -0.5913619999999999           
         O6        1.0000    0.64855   0.04573   0.90670   Biso      1.000     O          -0.5686359999999999           
         O7        1.0000    0.94013   0.39203   0.38193   Biso      1.000     O          -0.562276           
         O8        1.0000    0.52325   0.30000   0.05436   Biso      1.000     O          -0.594097           
         O9        1.0000    0.59710   0.45344   0.04814   Biso      1.000     O          -0.570045           
         O10       1.0000    0.02325   0.70000   0.44564   Biso      1.000     O          -0.594934           
         O11       1.0000    0.81880   0.25882   0.41271   Biso      1.000     O          -0.5581189999999999           
         O12       1.0000    0.29083   0.31893   0.89008   Biso      1.000     O          -0.564878           
         O13       1.0000    0.39796   0.18064   0.92188   Biso      1.000     O          -0.5912890000000001           
         O14       1.0000    0.51499   0.91543   0.92292   Biso      1.000     O          -0.60855  
         O15       1.0000    0.98501   0.91543   0.42292   Biso      1.000     O          -0.6040479999999999           
         O16       1.0000    0.70917   0.68107   0.10992   Biso      1.000     O          -0.5647989999999999           
         O17       1.0000    0.60204   0.81936   0.07812   Biso      1.000     O          -0.5909409999999999           
         O18       1.0000    0.14855   0.95427   0.59330   Biso      1.000     O          -0.568289           
         O19       1.0000    0.18120   0.74118   0.58729   Biso      1.000     O          -0.583902           
         O20       1.0000    0.05987   0.60797   0.61807   Biso      1.000     O          -0.5652560000000001           
         O21       1.0000    0.40290   0.54656   0.95186   Biso      1.000     O          -0.5701930000000001           
         O22       1.0000    0.47675   0.70000   0.94564   Biso      1.000     O          -0.594513           
         O23       1.0000    0.48501   0.08457   0.07708   Biso      1.000     O          -0.608794           
         O24       1.0000    0.35145   0.95427   0.09330   Biso      1.000     O          -0.568974           
         O25       1.0000    0.10204   0.18064   0.42188   Biso      1.000     O          -0.57217  
         O26       1.0000    0.20917   0.31893   0.39008   Biso      1.000     O          -0.5652729999999999           
         O27       1.0000    0.68120   0.25882   0.91271   Biso      1.000     O          -0.583921           
         O28       1.0000    0.55987   0.39203   0.88193   Biso      1.000     O          -0.565434           
         O29       1.0000    0.90290   0.45344   0.54814   Biso      1.000     O          -0.569512           
         O30       1.0000    0.97675   0.30000   0.55436   Biso      1.000     O          -0.579086           
         O31       1.0000    0.85145   0.04573   0.40670   Biso      1.000     O          -0.5342020000000001           
         O32       1.0000    0.01499   0.08457   0.57708   Biso      1.000     O          -0.581186 