
##########################################################################
#               Crystallographic Information Format file
#               Produced by PyCifRW module
#
#  This is a CIF file.  CIF has been adopted by the International
#  Union of Crystallography as the standard for data archiving and
#  transmission.
#
#  For information on this file format, follow the CIF links at
#  http://www.iucr.org
##########################################################################

data_image0

_cell_length_a                          10.1978
_cell_length_b                          13.502
_cell_length_c                          17.707
_cell_angle_alpha                       90
_cell_angle_beta                        90
_cell_angle_gamma                       90
_symmetry_space_group_name_H-M          'P 1'
_symmetry_int_tables_number             1
loop_
  _symmetry_equiv_pos_as_xyz
         'x, y, z' 
loop_
  _atom_site_label
  _atom_site_occupancy
  _atom_site_fract_x
  _atom_site_fract_y
  _atom_site_fract_z
  _atom_site_thermal_displace_type
  _atom_site_B_iso_or_equiv
  _atom_site_type_symbol
  _atom_site_charge
         C1        1.0000    0.33730   0.08760   0.18020   Biso      1.000     C          -0.02096  
         C2        1.0000    0.22410   0.07690   0.30000   Biso      1.000     C          -0.102563           
         C3        1.0000    0.27670   0.03190   0.23580   Biso      1.000     C          -0.108537           
         C4        1.0000    0.76810   0.82050   0.69080   Biso      1.000     C          -0.020508           
         C5        1.0000    0.34350   0.19100   0.18890   Biso      1.000     C          -0.117637           
         C6        1.0000    0.29080   0.23550   0.25380   Biso      1.000     C          -0.107115           
         C7        1.0000    0.23190   0.17950   0.30920   Biso      1.000     C          -0.020505           
         C8        1.0000    0.17640   0.22930   0.37810   Biso      1.000     C          0.612488  
         C9        1.0000    0.22150   0.74120   0.23770   Biso      1.000     C          -0.103182           
         C10       1.0000    0.16010   0.73230   0.30850   Biso      1.000     C          -0.099263           
         C11       1.0000    0.39740   0.03900   0.11070   Biso      1.000     C          0.636016  
         C12       1.0000    0.15320   0.63960   0.34240   Biso      1.000     C          -0.043242           
         C13       1.0000    0.27000   0.56680   0.23790   Biso      1.000     C          -0.107964           
         C14       1.0000    0.27790   0.66020   0.20410   Biso      1.000     C          -0.000953           
         C15       1.0000    0.35110   0.67170   0.13070   Biso      1.000     C          0.611844  
         C16       1.0000    0.58860   0.37240   0.08290   Biso      1.000     C          0.611632  
         C17       1.0000    0.89740   0.96100   0.38930   Biso      1.000     C          0.636014  
         C18       1.0000    0.72410   0.92310   0.20000   Biso      1.000     C          -0.102556           
         C19       1.0000    0.77670   0.96810   0.26420   Biso      1.000     C          -0.10854  
         C20       1.0000    0.83730   0.91240   0.31980   Biso      1.000     C          -0.020957           
         C21       1.0000    0.84350   0.80900   0.31110   Biso      1.000     C          -0.117634           
         C22       1.0000    0.20660   0.55620   0.30530   Biso      1.000     C          -0.092115           
         C23       1.0000    0.79080   0.76450   0.24620   Biso      1.000     C          -0.107111           
         C24       1.0000    0.08860   0.62760   0.41710   Biso      1.000     C          0.61163   
         C25       1.0000    0.22210   0.66020   0.70410   Biso      1.000     C          -0.000956           
         C26       1.0000    0.83990   0.26770   0.69150   Biso      1.000     C          -0.099264           
         C27       1.0000    0.84680   0.36040   0.65760   Biso      1.000     C          -0.04324  
         C28       1.0000    0.79340   0.44380   0.69470   Biso      1.000     C          -0.092121           
         C29       1.0000    0.73000   0.43320   0.76210   Biso      1.000     C          -0.107954           
         C30       1.0000    0.72210   0.33980   0.79590   Biso      1.000     C          -0.000958           
         C31       1.0000    0.64890   0.32830   0.86930   Biso      1.000     C          0.611843  
         C32       1.0000    0.41140   0.62760   0.91710   Biso      1.000     C          0.611631  
         C33       1.0000    0.10260   0.03900   0.61070   Biso      1.000     C          0.636013  
         C34       1.0000    0.27590   0.07690   0.80000   Biso      1.000     C          -0.102557           
         C35       1.0000    0.14890   0.67170   0.63070   Biso      1.000     C          0.611843  
         C36       1.0000    0.22330   0.03190   0.73580   Biso      1.000     C          -0.10854  
         C37       1.0000    0.15650   0.19100   0.68890   Biso      1.000     C          -0.117634           
         C38       1.0000    0.20920   0.23550   0.75380   Biso      1.000     C          -0.107112           
         C39       1.0000    0.26810   0.17950   0.80920   Biso      1.000     C          -0.020505           
         C40       1.0000    0.32360   0.22930   0.87810   Biso      1.000     C          0.612492  
         C41       1.0000    0.27850   0.74120   0.73770   Biso      1.000     C          -0.103172           
         C42       1.0000    0.33990   0.73230   0.80850   Biso      1.000     C          -0.099263           
         C43       1.0000    0.34680   0.63960   0.84240   Biso      1.000     C          -0.04324  
         C44       1.0000    0.29340   0.55620   0.80530   Biso      1.000     C          -0.092125           
         C45       1.0000    0.23000   0.56680   0.73790   Biso      1.000     C          -0.10795  
         C46       1.0000    0.16270   0.08760   0.68020   Biso      1.000     C          -0.020956           
         C47       1.0000    0.73190   0.82050   0.19080   Biso      1.000     C          -0.020505           
         C48       1.0000    0.67640   0.77070   0.12190   Biso      1.000     C          0.612493  
         C49       1.0000    0.72150   0.25880   0.26230   Biso      1.000     C          -0.103179           
         C50       1.0000    0.91140   0.37240   0.58290   Biso      1.000     C          0.611631  
         C51       1.0000    0.60260   0.96100   0.88930   Biso      1.000     C          0.636016  
         C52       1.0000    0.77590   0.92310   0.70000   Biso      1.000     C          -0.102561           
         C53       1.0000    0.72330   0.96810   0.76420   Biso      1.000     C          -0.108539           
         C54       1.0000    0.66270   0.91240   0.81980   Biso      1.000     C          -0.020956           
         C55       1.0000    0.65650   0.80900   0.81110   Biso      1.000     C          -0.117635           
         C56       1.0000    0.70920   0.76450   0.74620   Biso      1.000     C          -0.107109           
         C57       1.0000    0.77850   0.25880   0.76230   Biso      1.000     C          -0.103175           
         C58       1.0000    0.82360   0.77070   0.62190   Biso      1.000     C          0.61249   
         C59       1.0000    0.66010   0.26770   0.19150   Biso      1.000     C          -0.099263           
         C60       1.0000    0.65320   0.36040   0.15760   Biso      1.000     C          -0.043242           
         C61       1.0000    0.70660   0.44380   0.19470   Biso      1.000     C          -0.092127           
         C62       1.0000    0.77000   0.43320   0.26210   Biso      1.000     C          -0.107952           
         C63       1.0000    0.77790   0.33980   0.29590   Biso      1.000     C          -0.000951           
         C64       1.0000    0.85110   0.32830   0.36930   Biso      1.000     C          0.611845  
         H1        1.0000    0.70420   0.69610   0.74050   Biso      1.000     H          0.119208  
         H2        1.0000    0.68370   0.96160   0.16310   Biso      1.000     H          0.116905  
         H3        1.0000    0.77100   0.03640   0.26970   Biso      1.000     H          0.116281  
         H4        1.0000    0.88240   0.77010   0.34820   Biso      1.000     H          0.114032  
         H5        1.0000    0.79580   0.69610   0.24050   Biso      1.000     H          0.119208  
         H6        1.0000    0.80780   0.48790   0.28550   Biso      1.000     H          0.120896  
         H7        1.0000    0.62470   0.21240   0.16780   Biso      1.000     H          0.115741  
         H8        1.0000    0.69860   0.50630   0.17310   Biso      1.000     H          0.117427  
         H9        1.0000    0.30780   0.51210   0.21450   Biso      1.000     H          0.120895  
         H10       1.0000    0.81630   0.96160   0.66310   Biso      1.000     H          0.116905  
         H11       1.0000    0.72380   0.19770   0.28640   Biso      1.000     H          0.124373  
         H12       1.0000    0.19860   0.49370   0.32690   Biso      1.000     H          0.117424  
         H13       1.0000    0.12470   0.78760   0.33220   Biso      1.000     H          0.11574   
         H14       1.0000    0.22380   0.80230   0.21360   Biso      1.000     H          0.124371  
         H15       1.0000    0.77620   0.19770   0.78640   Biso      1.000     H          0.124371  
         H16       1.0000    0.87530   0.21240   0.66780   Biso      1.000     H          0.11574   
         H17       1.0000    0.80140   0.50630   0.67310   Biso      1.000     H          0.117425  
         H18       1.0000    0.69220   0.48790   0.78550   Biso      1.000     H          0.120895  
         H19       1.0000    0.31630   0.03840   0.83690   Biso      1.000     H          0.116905  
         H20       1.0000    0.22900   0.96360   0.73030   Biso      1.000     H          0.116281  
         H21       1.0000    0.11760   0.22990   0.65180   Biso      1.000     H          0.114032  
         H22       1.0000    0.61760   0.77010   0.84820   Biso      1.000     H          0.114031  
         H23       1.0000    0.20420   0.30390   0.75950   Biso      1.000     H          0.119209  
         H24       1.0000    0.37530   0.78760   0.83220   Biso      1.000     H          0.11574   
         H25       1.0000    0.30140   0.49370   0.82690   Biso      1.000     H          0.117427  
         H26       1.0000    0.19220   0.51210   0.71450   Biso      1.000     H          0.120895  
         H27       1.0000    0.72900   0.03640   0.76970   Biso      1.000     H          0.116279  
         H28       1.0000    0.27100   0.96360   0.23030   Biso      1.000     H          0.116278  
         H29       1.0000    0.38240   0.22990   0.15180   Biso      1.000     H          0.114031  
         H30       1.0000    0.29580   0.30390   0.25950   Biso      1.000     H          0.119207  
         H31       1.0000    0.27620   0.80230   0.71360   Biso      1.000     H          0.124371  
         H32       1.0000    0.18370   0.03840   0.33690   Biso      1.000     H          0.116904  
         Mn1       1.0000    0.92547   0.15327   0.48340   Biso      1.000     Mn          1.118234  
         Mn2       1.0000    0.41881   0.38919   0.96763   Biso      1.000     Mn          1.038794  
         Mn3       1.0000    0.57453   0.15327   0.98340   Biso      1.000     Mn          1.11824   
         Mn4       1.0000    0.91881   0.61081   0.53237   Biso      1.000     Mn          1.038799  
         Mn5       1.0000    0.07453   0.84673   0.51660   Biso      1.000     Mn          1.118225  
         Mn6       1.0000    0.58119   0.61081   0.03237   Biso      1.000     Mn          1.038785  
         Mn7       1.0000    0.42547   0.84673   0.01660   Biso      1.000     Mn          1.118248  
         Mn8       1.0000    0.08119   0.38919   0.46763   Biso      1.000     Mn          1.038792  
         O1        1.0000    0.06140   0.60840   0.61770   Biso      1.000     O          -0.568434           
         O2        1.0000    0.39700   0.18050   0.92190   Biso      1.000     O          -0.596775           
         O3        1.0000    0.29270   0.31880   0.88940   Biso      1.000     O          -0.563466           
         O4        1.0000    0.47650   0.69950   0.94630   Biso      1.000     O          -0.6022   
         O5        1.0000    0.14720   0.95540   0.59360   Biso      1.000     O          -0.570771           
         O6        1.0000    0.01620   0.08560   0.57610   Biso      1.000     O          -0.602684           
         O7        1.0000    0.89700   0.81950   0.57810   Biso      1.000     O          -0.596775           
         O8        1.0000    0.67920   0.25650   0.91090   Biso      1.000     O          -0.581586           
         O9        1.0000    0.56140   0.39160   0.88230   Biso      1.000     O          -0.568434           
         O10       1.0000    0.17920   0.74350   0.58910   Biso      1.000     O          -0.581584           
         O11       1.0000    0.79270   0.68120   0.61060   Biso      1.000     O          -0.563468           
         O12       1.0000    0.97650   0.30050   0.55370   Biso      1.000     O          -0.6022   
         O13       1.0000    0.64720   0.04460   0.90640   Biso      1.000     O          -0.570772           
         O14       1.0000    0.40450   0.54670   0.95080   Biso      1.000     O          -0.563927           
         O15       1.0000    0.09550   0.54670   0.45080   Biso      1.000     O          -0.563929           
         O16       1.0000    0.02350   0.69950   0.44630   Biso      1.000     O          -0.6022   
         O17       1.0000    0.35280   0.95540   0.09360   Biso      1.000     O          -0.570773           
         O18       1.0000    0.51620   0.91440   0.92390   Biso      1.000     O          -0.602687           
         O19       1.0000    0.20730   0.31880   0.38940   Biso      1.000     O          -0.563467           
         O20       1.0000    0.10300   0.18050   0.42190   Biso      1.000     O          -0.596775           
         O21       1.0000    0.43860   0.60840   0.11770   Biso      1.000     O          -0.568433           
         O22       1.0000    0.32080   0.74350   0.08910   Biso      1.000     O          -0.581586           
         O23       1.0000    0.59550   0.45330   0.04920   Biso      1.000     O          -0.563927           
         O24       1.0000    0.98380   0.91440   0.42390   Biso      1.000     O          -0.602683           
         O25       1.0000    0.85280   0.04460   0.40640   Biso      1.000     O          -0.570771           
         O26       1.0000    0.52350   0.30050   0.05370   Biso      1.000     O          -0.6022   
         O27       1.0000    0.70730   0.68120   0.11060   Biso      1.000     O          -0.563465           
         O28       1.0000    0.60300   0.81950   0.07810   Biso      1.000     O          -0.596776           
         O29       1.0000    0.93860   0.39160   0.38230   Biso      1.000     O          -0.568433           
         O30       1.0000    0.82080   0.25650   0.41090   Biso      1.000     O          -0.581584           
         O31       1.0000    0.48380   0.08560   0.07610   Biso      1.000     O          -0.602686           
         O32       1.0000    0.90450   0.45330   0.54920   Biso      1.000     O          -0.563929 