
##########################################################################
#               Crystallographic Information Format file
#               Produced by PyCifRW module
#
#  This is a CIF file.  CIF has been adopted by the International
#  Union of Crystallography as the standard for data archiving and
#  transmission.
#
#  For information on this file format, follow the CIF links at
#  http://www.iucr.org
##########################################################################

data_image0

_cell_length_a                          10.1898
_cell_length_b                          13.5792
_cell_length_c                          17.6223
_cell_angle_alpha                       90.738
_cell_angle_beta                        90
_cell_angle_gamma                       90
_symmetry_space_group_name_H-M          'P 1'
_symmetry_int_tables_number             1
loop_
  _symmetry_equiv_pos_as_xyz
         'x, y, z' 
loop_
  _atom_site_label
  _atom_site_occupancy
  _atom_site_fract_x
  _atom_site_fract_y
  _atom_site_fract_z
  _atom_site_thermal_displace_type
  _atom_site_B_iso_or_equiv
  _atom_site_type_symbol
  _atom_site_charge
         C1        1.0000    0.26760   0.81843   0.69231   Biso      1.000     C          -0.017384           
         C2        1.0000    0.22160   0.96348   0.76571   Biso      1.000     C          -0.10513199999999999          
         C3        1.0000    0.27500   0.91934   0.70193   Biso      1.000     C          -0.11408599999999999          
         C4        1.0000    0.83830   0.09177   0.17893   Biso      1.000     C          -0.024281           
         C5        1.0000    0.20930   0.76323   0.74785   Biso      1.000     C          -0.112106           
         C6        1.0000    0.15670   0.80760   0.81207   Biso      1.000     C          -0.106574           
         C7        1.0000    0.16170   0.90823   0.82107   Biso      1.000     C          -0.024263999999999997         
         C8        1.0000    0.64660   0.67589   0.63318   Biso      1.000     C          0.623444  
         C9        1.0000    0.91356   0.62742   0.91760   Biso      1.000     C          0.617056  
         C10       1.0000    0.79330   0.55900   0.80613   Biso      1.000     C          -0.094764           
         C11       1.0000    0.10180   0.95699   0.89026   Biso      1.000     C          0.647356  
         C12       1.0000    0.72830   0.57099   0.73870   Biso      1.000     C          -0.106334           
         C13       1.0000    0.77550   0.74305   0.74267   Biso      1.000     C          -0.102925           
         C14       1.0000    0.83770   0.73249   0.81187   Biso      1.000     C          -0.11083900000000001          
         C15       1.0000    0.84630   0.64060   0.84369   Biso      1.000     C          -0.034208999999999996         
         C16       1.0000    0.82370   0.23130   0.87682   Biso      1.000     C          0.618816  
         C17       1.0000    0.60180   0.04301   0.60974   Biso      1.000     C          0.647703  
         C18       1.0000    0.72160   0.03652   0.73429   Biso      1.000     C          -0.10504000000000001          
         C19       1.0000    0.77500   0.08066   0.79807   Biso      1.000     C          -0.11414  
         C20       1.0000    0.76760   0.18157   0.80769   Biso      1.000     C          -0.017352           
         C21       1.0000    0.70930   0.23677   0.75215   Biso      1.000     C          -0.11213900000000002          
         C22       1.0000    0.71930   0.66309   0.70640   Biso      1.000     C          -0.009991           
         C23       1.0000    0.65670   0.19240   0.68793   Biso      1.000     C          -0.106502           
         C24       1.0000    0.32370   0.76870   0.62318   Biso      1.000     C          0.618816  
         C25       1.0000    0.66230   0.73249   0.31187   Biso      1.000     C          -0.11066300000000001          
         C26       1.0000    0.20670   0.44100   0.19387   Biso      1.000     C          -0.09466799999999999          
         C27       1.0000    0.27170   0.42901   0.26130   Biso      1.000     C          -0.106326           
         C28       1.0000    0.28070   0.33691   0.29360   Biso      1.000     C          -0.009883           
         C29       1.0000    0.22450   0.25695   0.25733   Biso      1.000     C          -0.102914           
         C30       1.0000    0.16230   0.26751   0.18813   Biso      1.000     C          -0.110652           
         C31       1.0000    0.15370   0.35940   0.15631   Biso      1.000     C          -0.034339999999999996         
         C32       1.0000    0.17630   0.76870   0.12318   Biso      1.000     C          0.618609  
         C33       1.0000    0.39820   0.95699   0.39026   Biso      1.000     C          0.6476970000000001  
         C34       1.0000    0.27840   0.96348   0.26571   Biso      1.000     C          -0.10506800000000001          
         C35       1.0000    0.65370   0.64060   0.34369   Biso      1.000     C          -0.034279000000000004         
         C36       1.0000    0.22500   0.91934   0.20193   Biso      1.000     C          -0.1142   
         C37       1.0000    0.29070   0.76323   0.24785   Biso      1.000     C          -0.112283           
         C38       1.0000    0.34330   0.80760   0.31207   Biso      1.000     C          -0.10648800000000001          
         C39       1.0000    0.33830   0.90823   0.32107   Biso      1.000     C          -0.024427           
         C40       1.0000    0.85340   0.67589   0.13318   Biso      1.000     C          0.623341  
         C41       1.0000    0.58644   0.62742   0.41760   Biso      1.000     C          0.617375  
         C42       1.0000    0.70670   0.55900   0.30613   Biso      1.000     C          -0.09466000000000001          
         C43       1.0000    0.77170   0.57099   0.23870   Biso      1.000     C          -0.106366           
         C44       1.0000    0.78070   0.66309   0.20640   Biso      1.000     C          -0.009936           
         C45       1.0000    0.72450   0.74305   0.24267   Biso      1.000     C          -0.102975           
         C46       1.0000    0.23240   0.81843   0.19231   Biso      1.000     C          -0.017322999999999998         
         C47       1.0000    0.66170   0.09177   0.67893   Biso      1.000     C          -0.024347           
         C48       1.0000    0.14660   0.32411   0.86682   Biso      1.000     C          0.6234310000000001  
         C49       1.0000    0.41356   0.37258   0.58240   Biso      1.000     C          0.617445  
         C50       1.0000    0.67630   0.23130   0.37682   Biso      1.000     C          0.6188020000000001  
         C51       1.0000    0.89820   0.04301   0.10974   Biso      1.000     C          0.647346  
         C52       1.0000    0.77840   0.03652   0.23429   Biso      1.000     C          -0.10513099999999999          
         C53       1.0000    0.72500   0.08066   0.29807   Biso      1.000     C          -0.11407300000000001          
         C54       1.0000    0.73240   0.18157   0.30769   Biso      1.000     C          -0.017376           
         C55       1.0000    0.79070   0.23677   0.25215   Biso      1.000     C          -0.112104           
         C56       1.0000    0.84330   0.19240   0.18793   Biso      1.000     C          -0.106577           
         C57       1.0000    0.08644   0.37258   0.08240   Biso      1.000     C          0.617494  
         C58       1.0000    0.35340   0.32411   0.36682   Biso      1.000     C          0.623442  
         C59       1.0000    0.29330   0.44100   0.69387   Biso      1.000     C          -0.094667           
         C60       1.0000    0.22830   0.42901   0.76130   Biso      1.000     C          -0.106333           
         C61       1.0000    0.21930   0.33691   0.79360   Biso      1.000     C          -0.009934           
         C62       1.0000    0.27550   0.25695   0.75733   Biso      1.000     C          -0.102941           
         C63       1.0000    0.33770   0.26751   0.68813   Biso      1.000     C          -0.110671           
         C64       1.0000    0.34630   0.35940   0.65631   Biso      1.000     C          -0.034285           
         H1        1.0000    0.31400   0.48300   0.28740   Biso      1.000     H          0.11670699999999999           
         H2        1.0000    0.72100   0.97000   0.73160   Biso      1.000     H          0.11635   
         H3        1.0000    0.29900   0.50440   0.67250   Biso      1.000     H          0.116678  
         H4        1.0000    0.27100   0.19900   0.77970   Biso      1.000     H          0.123176  
         H5        1.0000    0.18600   0.48300   0.78740   Biso      1.000     H          0.11668900000000001           
         H6        1.0000    0.61500   0.23130   0.65050   Biso      1.000     H          0.11025499999999999           
         H7        1.0000    0.70900   0.30400   0.75670   Biso      1.000     H          0.118324  
         H8        1.0000    0.37200   0.21560   0.66620   Biso      1.000     H          0.11733199999999999           
         H9        1.0000    0.11500   0.76870   0.84950   Biso      1.000     H          0.11027999999999999           
         H10       1.0000    0.77900   0.97000   0.23160   Biso      1.000     H          0.116354  
         H11       1.0000    0.81000   0.04400   0.83340   Biso      1.000     H          0.121294  
         H12       1.0000    0.87200   0.78440   0.83380   Biso      1.000     H          0.117281  
         H13       1.0000    0.20900   0.69600   0.74330   Biso      1.000     H          0.11831900000000001           
         H14       1.0000    0.31000   0.95600   0.66660   Biso      1.000     H          0.121299  
         H15       1.0000    0.69000   0.04400   0.33340   Biso      1.000     H          0.12130899999999999           
         H16       1.0000    0.79100   0.30400   0.25670   Biso      1.000     H          0.118323  
         H17       1.0000    0.12800   0.21560   0.16620   Biso      1.000     H          0.117336  
         H18       1.0000    0.88500   0.23130   0.15050   Biso      1.000     H          0.110246  
         H19       1.0000    0.27900   0.03000   0.26840   Biso      1.000     H          0.116325  
         H20       1.0000    0.70100   0.49560   0.32750   Biso      1.000     H          0.116676  
         H21       1.0000    0.72900   0.80100   0.22030   Biso      1.000     H          0.123176  
         H22       1.0000    0.22900   0.19900   0.27970   Biso      1.000     H          0.123196  
         H23       1.0000    0.81400   0.51700   0.21260   Biso      1.000     H          0.116691  
         H24       1.0000    0.29100   0.69600   0.24330   Biso      1.000     H          0.118301  
         H25       1.0000    0.62800   0.78440   0.33380   Biso      1.000     H          0.11733900000000001           
         H26       1.0000    0.38500   0.76870   0.34950   Biso      1.000     H          0.11024   
         H27       1.0000    0.20100   0.50440   0.17250   Biso      1.000     H          0.11664100000000001           
         H28       1.0000    0.79900   0.49560   0.82750   Biso      1.000     H          0.11666900000000001           
         H29       1.0000    0.77100   0.80100   0.72030   Biso      1.000     H          0.123175  
         H30       1.0000    0.68600   0.51700   0.71260   Biso      1.000     H          0.116683  
         H31       1.0000    0.19000   0.95600   0.16660   Biso      1.000     H          0.12128399999999999           
         H32       1.0000    0.22100   0.03000   0.76840   Biso      1.000     H          0.11635   
         Mn1       1.0000    0.57970   0.38996   0.46572   Biso      1.000     Mn          1.032827  
         Mn2       1.0000    0.07006   0.15240   0.98031   Biso      1.000     Mn          1.11142   
         Mn3       1.0000    0.92030   0.38996   0.96572   Biso      1.000     Mn          1.032281  
         Mn4       1.0000    0.57006   0.84760   0.51969   Biso      1.000     Mn          1.112093  
         Mn5       1.0000    0.42030   0.61004   0.53428   Biso      1.000     Mn          1.032823  
         Mn6       1.0000    0.92994   0.84760   0.01969   Biso      1.000     Mn          1.111844  
         Mn7       1.0000    0.07970   0.61004   0.03428   Biso      1.000     Mn          1.033008  
         Mn8       1.0000    0.42994   0.15240   0.48031   Biso      1.000     Mn          1.112066  
         O1        1.0000    0.59022   0.54550   0.44852   Biso      1.000     O          -0.5717399999999999           
         O2        1.0000    0.93349   0.60995   0.11665   Biso      1.000     O          -0.5718489999999999           
         O3        1.0000    0.82744   0.74889   0.09497   Biso      1.000     O          -0.577327           
         O4        1.0000    0.47900   0.90979   0.42644   Biso      1.000     O          -0.603255           
         O5        1.0000    0.36250   0.04208   0.40518   Biso      1.000     O          -0.5763510000000001           
         O6        1.0000    0.10825   0.81751   0.07888   Biso      1.000     O          -0.592464           
         O7        1.0000    0.43349   0.39005   0.38335   Biso      1.000     O          -0.5720189999999999           
         O8        1.0000    0.02466   0.30189   0.05181   Biso      1.000     O          -0.5958829999999999           
         O9        1.0000    0.09022   0.45450   0.05148   Biso      1.000     O          -0.571641           
         O10       1.0000    0.52466   0.69811   0.44819   Biso      1.000     O          -0.596087           
         O11       1.0000    0.32744   0.25111   0.40503   Biso      1.000     O          -0.577721           
         O12       1.0000    0.97900   0.09021   0.07356   Biso      1.000     O          -0.602837           
         O13       1.0000    0.86250   0.95792   0.09482   Biso      1.000     O          -0.575551           
         O14       1.0000    0.20390   0.67966   0.11305   Biso      1.000     O          -0.5644779999999999           
         O15       1.0000    0.29610   0.67966   0.61305   Biso      1.000     O          -0.56493  
         O16       1.0000    0.02100   0.90979   0.92644   Biso      1.000     O          -0.6028180000000001           
         O17       1.0000    0.13750   0.04208   0.90518   Biso      1.000     O          -0.575803           
         O18       1.0000    0.60825   0.18249   0.42112   Biso      1.000     O          -0.592025           
         O19       1.0000    0.67256   0.74889   0.59497   Biso      1.000     O          -0.577743           
         O20       1.0000    0.56651   0.60995   0.61665   Biso      1.000     O          -0.572048           
         O21       1.0000    0.90978   0.54550   0.94852   Biso      1.000     O          -0.571563           
         O22       1.0000    0.97534   0.69811   0.94819   Biso      1.000     O          -0.596005           
         O23       1.0000    0.79610   0.32034   0.88695   Biso      1.000     O          -0.564814           
         O24       1.0000    0.89175   0.18249   0.92112   Biso      1.000     O          -0.591997           
         O25       1.0000    0.63750   0.95792   0.59482   Biso      1.000     O          -0.576309           
         O26       1.0000    0.52100   0.09021   0.57356   Biso      1.000     O          -0.603245           
         O27       1.0000    0.17256   0.25111   0.90503   Biso      1.000     O          -0.5776640000000001           
         O28       1.0000    0.06651   0.39005   0.88335   Biso      1.000     O          -0.5719609999999999           
         O29       1.0000    0.40978   0.45450   0.55148   Biso      1.000     O          -0.571706           
         O30       1.0000    0.47534   0.30189   0.55181   Biso      1.000     O          -0.596091           
         O31       1.0000    0.39175   0.81751   0.57888   Biso      1.000     O          -0.592018           
         O32       1.0000    0.70390   0.32034   0.38695   Biso      1.000     O          -0.56493 