
##########################################################################
#               Crystallographic Information Format file
#               Produced by PyCifRW module
#
#  This is a CIF file.  CIF has been adopted by the International
#  Union of Crystallography as the standard for data archiving and
#  transmission.
#
#  For information on this file format, follow the CIF links at
#  http://www.iucr.org
##########################################################################

data_image0

_cell_length_a                          7.306
_cell_length_b                          10.205
_cell_length_c                          18.111
_cell_angle_alpha                       90
_cell_angle_beta                        90
_cell_angle_gamma                       94.248
_symmetry_space_group_name_H-M          'P 1'
_symmetry_int_tables_number             1
loop_
  _symmetry_equiv_pos_as_xyz
         'x, y, z' 
loop_
  _atom_site_label
  _atom_site_occupancy
  _atom_site_fract_x
  _atom_site_fract_y
  _atom_site_fract_z
  _atom_site_thermal_displace_type
  _atom_site_B_iso_or_equiv
  _atom_site_type_symbol
  _atom_site_charge
         C1        1.0000    0.30580   0.82000   0.44710   Biso      1.000     C          0.631566  
         C2        1.0000    0.73390   0.43100   0.09500   Biso      1.000     C          -0.006224           
         C3        1.0000    0.64140   0.65160   0.10420   Biso      1.000     C          -0.087894           
         C4        1.0000    0.69420   0.18000   0.55290   Biso      1.000     C          0.6315689999999999  
         C5        1.0000    0.79520   0.94900   0.56100   Biso      1.000     C          -0.116433           
         C6        1.0000    0.89320   0.86540   0.67910   Biso      1.000     C          -0.107901           
         C7        1.0000    0.89850   0.00880   0.79240   Biso      1.000     C          0.631358  
         C8        1.0000    0.86350   0.98430   0.71190   Biso      1.000     C          -0.008227           
         C9        1.0000    0.79960   0.08470   0.66970   Biso      1.000     C          -0.100883           
         C10       1.0000    0.76610   0.06900   0.59500   Biso      1.000     C          -0.00645  
         C11       1.0000    0.85860   0.84840   0.60420   Biso      1.000     C          -0.087509           
         C12       1.0000    0.60150   0.49120   0.29240   Biso      1.000     C          0.631245  
         C13       1.0000    0.60680   0.63460   0.17910   Biso      1.000     C          -0.107804           
         C14       1.0000    0.70480   0.55100   0.06100   Biso      1.000     C          -0.116525           
         C15       1.0000    0.80580   0.32000   0.05290   Biso      1.000     C          0.631473  
         C16       1.0000    0.14140   0.15160   0.39580   Biso      1.000     C          -0.087504           
         C17       1.0000    0.23390   0.93100   0.40500   Biso      1.000     C          -0.006448000000000001         
         C18       1.0000    0.20040   0.91530   0.33030   Biso      1.000     C          -0.100899           
         C19       1.0000    0.13650   0.01570   0.28810   Biso      1.000     C          -0.008228000000000001         
         C20       1.0000    0.10150   0.99120   0.20760   Biso      1.000     C          0.63137   
         C21       1.0000    0.10680   0.13460   0.32090   Biso      1.000     C          -0.107867           
         C22       1.0000    0.20480   0.05100   0.43900   Biso      1.000     C          -0.11641900000000001          
         C23       1.0000    0.35860   0.34840   0.89580   Biso      1.000     C          -0.08788  
         C24       1.0000    0.26610   0.56900   0.90500   Biso      1.000     C          -0.006215           
         C25       1.0000    0.29960   0.58470   0.83030   Biso      1.000     C          -0.100875           
         C26       1.0000    0.36350   0.48430   0.78810   Biso      1.000     C          -0.008129           
         C27       1.0000    0.39850   0.50880   0.70760   Biso      1.000     C          0.631253  
         C28       1.0000    0.39320   0.36540   0.82090   Biso      1.000     C          -0.107767           
         C29       1.0000    0.29520   0.44900   0.93900   Biso      1.000     C          -0.11651700000000001          
         C30       1.0000    0.19420   0.68000   0.94710   Biso      1.000     C          0.631472  
         C31       1.0000    0.70040   0.41530   0.16970   Biso      1.000     C          -0.100854           
         C32       1.0000    0.63650   0.51570   0.21190   Biso      1.000     C          -0.00812  
         Cu1       1.0000    0.86455   0.21590   0.90528   Biso      1.000     Cu          0.9801049999999999  
         Cu2       1.0000    0.63545   0.28410   0.40528   Biso      1.000     Cu          0.981109  
         Cu3       1.0000    0.03951   0.92979   0.93158   Biso      1.000     Cu          1.066273  
         Cu4       1.0000    0.46049   0.57021   0.43158   Biso      1.000     Cu          1.069002  
         Cu5       1.0000    0.13545   0.78410   0.09472   Biso      1.000     Cu          0.980141  
         Cu6       1.0000    0.96049   0.07021   0.06842   Biso      1.000     Cu          1.066293  
         Cu7       1.0000    0.36455   0.71590   0.59472   Biso      1.000     Cu          0.9811840000000001  
         Cu8       1.0000    0.53951   0.42979   0.56842   Biso      1.000     Cu          1.069     
         H1        1.0000    0.27290   0.43660   0.98910   Biso      1.000     H          0.13611800000000002           
         H2        1.0000    0.77890   0.16430   0.69210   Biso      1.000     H          0.136746  
         H3        1.0000    0.43590   0.29750   0.79300   Biso      1.000     H          0.13989100000000002           
         H4        1.0000    0.77290   0.93660   0.51090   Biso      1.000     H          0.13615   
         H5        1.0000    0.72110   0.33570   0.19210   Biso      1.000     H          0.136876  
         H6        1.0000    0.56410   0.70250   0.20700   Biso      1.000     H          0.13989000000000001           
         H7        1.0000    0.72710   0.56340   0.01090   Biso      1.000     H          0.13611600000000001           
         H8        1.0000    0.22110   0.83570   0.30790   Biso      1.000     H          0.136751  
         H9        1.0000    0.06410   0.20250   0.29300   Biso      1.000     H          0.139792  
         H10       1.0000    0.22710   0.06340   0.48910   Biso      1.000     H          0.136152  
         H11       1.0000    0.93590   0.79750   0.70700   Biso      1.000     H          0.139789  
         H12       1.0000    0.27890   0.66430   0.80790   Biso      1.000     H          0.136875  
         O1        1.0000    0.17880   0.78290   0.91080   Biso      1.000     O          -0.480047           
         O2        1.0000    0.45110   0.85270   0.09130   Biso      1.000     O          -0.5827979999999999           
         O3        1.0000    0.05600   0.08560   0.16789   Biso      1.000     O          -0.478513           
         O4        1.0000    0.13060   0.94170   0.03442   Biso      1.000     O          -0.639338           
         O5        1.0000    0.34400   0.83820   0.51400   Biso      1.000     O          -0.5599390000000001           
         O6        1.0000    0.12270   0.87560   0.18641   Biso      1.000     O          -0.526449           
         O7        1.0000    0.14170   0.29960   0.51310   Biso      1.000     O          -0.572534           
         O8        1.0000    0.36940   0.55830   0.53442   Biso      1.000     O          -0.647287           
         O9        1.0000    0.27430   0.38890   0.40160   Biso      1.000     O          -0.673006           
         O10       1.0000    0.95110   0.35270   0.40870   Biso      1.000     O          -0.583882           
         O11       1.0000    0.44400   0.41440   0.66789   Biso      1.000     O          -0.477392           
         O12       1.0000    0.15600   0.66180   0.01400   Biso      1.000     O          -0.561102           
         O13       1.0000    0.37730   0.62440   0.68641   Biso      1.000     O          -0.524829           
         O14       1.0000    0.35830   0.20040   0.01310   Biso      1.000     O          -0.571546           
         O15       1.0000    0.77430   0.88890   0.09840   Biso      1.000     O          -0.672794           
         O16       1.0000    0.32120   0.71710   0.41080   Biso      1.000     O          -0.479339           
         O17       1.0000    0.82120   0.21710   0.08920   Biso      1.000     O          -0.480072           
         O18       1.0000    0.85830   0.70040   0.48690   Biso      1.000     O          -0.572519           
         O19       1.0000    0.62270   0.37560   0.31359   Biso      1.000     O          -0.5248550000000001           
         O20       1.0000    0.22570   0.11110   0.90160   Biso      1.000     O          -0.67281  
         O21       1.0000    0.94400   0.91440   0.83211   Biso      1.000     O          -0.478513           
         O22       1.0000    0.86940   0.05830   0.96558   Biso      1.000     O          -0.6393399999999999           
         O23       1.0000    0.64170   0.79960   0.98690   Biso      1.000     O          -0.571546           
         O24       1.0000    0.87730   0.12440   0.81359   Biso      1.000     O          -0.5264409999999999           
         O25       1.0000    0.65600   0.16180   0.48600   Biso      1.000     O          -0.559996           
         O26       1.0000    0.72570   0.61110   0.59840   Biso      1.000     O          -0.672998           
         O27       1.0000    0.04890   0.64730   0.59130   Biso      1.000     O          -0.583907           
         O28       1.0000    0.55600   0.58560   0.33211   Biso      1.000     O          -0.477397           
         O29       1.0000    0.63060   0.44170   0.46558   Biso      1.000     O          -0.647274           
         O30       1.0000    0.84400   0.33820   0.98600   Biso      1.000     O          -0.56116  
         O31       1.0000    0.67880   0.28290   0.58920   Biso      1.000     O          -0.47935600000000006          
         O32       1.0000    0.54890   0.14730   0.90870   Biso      1.000     O          -0.582856           
         S1        1.0000    0.37621   0.19043   0.93494   Biso      1.000     S          1.218787  
         S2        1.0000    0.12379   0.30957   0.43494   Biso      1.000     S          1.2191299999999998  
         S3        1.0000    0.62379   0.80957   0.06506   Biso      1.000     S          1.218782  
         S4        1.0000    0.87621   0.69043   0.56506   Biso      1.000     S          1.219144 