
##########################################################################
#               Crystallographic Information Format file
#               Produced by PyCifRW module
#
#  This is a CIF file.  CIF has been adopted by the International
#  Union of Crystallography as the standard for data archiving and
#  transmission.
#
#  For information on this file format, follow the CIF links at
#  http://www.iucr.org
##########################################################################

data_image0

_cell_length_a                          7.3333
_cell_length_b                          10.1729
_cell_length_c                          18.153
_cell_angle_alpha                       90
_cell_angle_beta                        90
_cell_angle_gamma                       94.379
_symmetry_space_group_name_H-M          'P 1'
_symmetry_int_tables_number             1
loop_
  _symmetry_equiv_pos_as_xyz
         'x, y, z' 
loop_
  _atom_site_label
  _atom_site_occupancy
  _atom_site_fract_x
  _atom_site_fract_y
  _atom_site_fract_z
  _atom_site_thermal_displace_type
  _atom_site_B_iso_or_equiv
  _atom_site_type_symbol
  _atom_site_charge
         C1        1.0000    0.30030   0.81700   0.44640   Biso      1.000     C          0.630638  
         C2        1.0000    0.72840   0.42990   0.09550   Biso      1.000     C          -0.005543           
         C3        1.0000    0.63720   0.65030   0.10450   Biso      1.000     C          -0.087939           
         C4        1.0000    0.69970   0.18300   0.55360   Biso      1.000     C          0.630649  
         C5        1.0000    0.80070   0.95030   0.56170   Biso      1.000     C          -0.111704           
         C6        1.0000    0.89690   0.86530   0.67930   Biso      1.000     C          -0.105681           
         C7        1.0000    0.90230   0.00930   0.79240   Biso      1.000     C          0.630294  
         C8        1.0000    0.86930   0.98520   0.71310   Biso      1.000     C          -0.013055           
         C9        1.0000    0.80430   0.08590   0.67000   Biso      1.000     C          -0.098654           
         C10       1.0000    0.77160   0.07010   0.59550   Biso      1.000     C          -0.00591  
         C11       1.0000    0.86280   0.84970   0.60450   Biso      1.000     C          -0.087751           
         C12       1.0000    0.59770   0.49070   0.29240   Biso      1.000     C          0.630324  
         C13       1.0000    0.60310   0.63470   0.17930   Biso      1.000     C          -0.105617           
         C14       1.0000    0.69930   0.54970   0.06170   Biso      1.000     C          -0.111416           
         C15       1.0000    0.80030   0.31700   0.05360   Biso      1.000     C          0.630514  
         C16       1.0000    0.13720   0.15030   0.39550   Biso      1.000     C          -0.087788           
         C17       1.0000    0.22840   0.92990   0.40450   Biso      1.000     C          -0.005915           
         C18       1.0000    0.19570   0.91410   0.33000   Biso      1.000     C          -0.098692           
         C19       1.0000    0.13070   0.01480   0.28690   Biso      1.000     C          -0.013054           
         C20       1.0000    0.09770   0.99070   0.20760   Biso      1.000     C          0.630297  
         C21       1.0000    0.10310   0.13470   0.32070   Biso      1.000     C          -0.105701           
         C22       1.0000    0.19930   0.04970   0.43830   Biso      1.000     C          -0.111731           
         C23       1.0000    0.36280   0.34970   0.89550   Biso      1.000     C          -0.087979           
         C24       1.0000    0.27160   0.57010   0.90450   Biso      1.000     C          -0.005542           
         C25       1.0000    0.30430   0.58590   0.83000   Biso      1.000     C          -0.098755           
         C26       1.0000    0.36930   0.48520   0.78690   Biso      1.000     C          -0.013294           
         C27       1.0000    0.40230   0.50930   0.70760   Biso      1.000     C          0.630317  
         C28       1.0000    0.39690   0.36530   0.82070   Biso      1.000     C          -0.105626           
         C29       1.0000    0.30070   0.45030   0.93830   Biso      1.000     C          -0.111442           
         C30       1.0000    0.19970   0.68300   0.94640   Biso      1.000     C          0.630501  
         C31       1.0000    0.69570   0.41410   0.17000   Biso      1.000     C          -0.098719           
         C32       1.0000    0.63070   0.51480   0.21310   Biso      1.000     C          -0.013282           
         Cu1       1.0000    0.86557   0.21710   0.90573   Biso      1.000     Cu          0.976013  
         Cu2       1.0000    0.63443   0.28290   0.40573   Biso      1.000     Cu          0.978122  
         Cu3       1.0000    0.04401   0.93194   0.93145   Biso      1.000     Cu          1.062989  
         Cu4       1.0000    0.45599   0.56806   0.43145   Biso      1.000     Cu          1.065754  
         Cu5       1.0000    0.13443   0.78290   0.09427   Biso      1.000     Cu          0.975832  
         Cu6       1.0000    0.95599   0.06806   0.06855   Biso      1.000     Cu          1.063037  
         Cu7       1.0000    0.36557   0.71710   0.59427   Biso      1.000     Cu          0.977965  
         Cu8       1.0000    0.54401   0.43194   0.56855   Biso      1.000     Cu          1.065768  
         H1        1.0000    0.27890   0.43810   0.98840   Biso      1.000     H          0.135343  
         H2        1.0000    0.78250   0.16560   0.69220   Biso      1.000     H          0.136398  
         H3        1.0000    0.43790   0.29620   0.79330   Biso      1.000     H          0.138528  
         H4        1.0000    0.77890   0.93810   0.51160   Biso      1.000     H          0.135348  
         H5        1.0000    0.71750   0.33440   0.19220   Biso      1.000     H          0.136443  
         H6        1.0000    0.56210   0.70380   0.20670   Biso      1.000     H          0.138544  
         H7        1.0000    0.72110   0.56190   0.01160   Biso      1.000     H          0.135351  
         H8        1.0000    0.21750   0.83440   0.30780   Biso      1.000     H          0.136397  
         H9        1.0000    0.06210   0.20380   0.29330   Biso      1.000     H          0.138547  
         H10       1.0000    0.22110   0.06190   0.48840   Biso      1.000     H          0.135337  
         H11       1.0000    0.93790   0.79620   0.70670   Biso      1.000     H          0.138555  
         H12       1.0000    0.28250   0.66560   0.80780   Biso      1.000     H          0.13643   
         O1        1.0000    0.18690   0.78620   0.90990   Biso      1.000     O          -0.475397           
         O2        1.0000    0.45020   0.85500   0.09330   Biso      1.000     O          -0.582941           
         O3        1.0000    0.05270   0.08590   0.16780   Biso      1.000     O          -0.479482           
         O4        1.0000    0.12960   0.94290   0.03470   Biso      1.000     O          -0.6389   
         O5        1.0000    0.34050   0.83650   0.51300   Biso      1.000     O          -0.561355           
         O6        1.0000    0.11840   0.87460   0.18580   Biso      1.000     O          -0.526737           
         O7        1.0000    0.12820   0.29740   0.51280   Biso      1.000     O          -0.568682           
         O8        1.0000    0.37040   0.55710   0.53470   Biso      1.000     O          -0.646053           
         O9        1.0000    0.27400   0.38700   0.40320   Biso      1.000     O          -0.67217  
         O10       1.0000    0.95020   0.35500   0.40670   Biso      1.000     O          -0.58436  
         O11       1.0000    0.44730   0.41410   0.66780   Biso      1.000     O          -0.477785           
         O12       1.0000    0.15950   0.66350   0.01300   Biso      1.000     O          -0.562819           
         O13       1.0000    0.38160   0.62540   0.68580   Biso      1.000     O          -0.524518           
         O14       1.0000    0.37180   0.20260   0.01280   Biso      1.000     O          -0.567578           
         O15       1.0000    0.77400   0.88700   0.09680   Biso      1.000     O          -0.671854           
         O16       1.0000    0.31310   0.71380   0.40990   Biso      1.000     O          -0.474366           
         O17       1.0000    0.81310   0.21380   0.09010   Biso      1.000     O          -0.475448           
         O18       1.0000    0.87180   0.70260   0.48720   Biso      1.000     O          -0.568689           
         O19       1.0000    0.61840   0.37460   0.31420   Biso      1.000     O          -0.524444           
         O20       1.0000    0.22600   0.11300   0.90320   Biso      1.000     O          -0.671906           
         O21       1.0000    0.94730   0.91410   0.83220   Biso      1.000     O          -0.479475           
         O22       1.0000    0.87040   0.05710   0.96530   Biso      1.000     O          -0.638802           
         O23       1.0000    0.62820   0.79740   0.98720   Biso      1.000     O          -0.567605           
         O24       1.0000    0.88160   0.12540   0.81420   Biso      1.000     O          -0.526639           
         O25       1.0000    0.65950   0.16350   0.48700   Biso      1.000     O          -0.561296           
         O26       1.0000    0.72600   0.61300   0.59680   Biso      1.000     O          -0.672065           
         O27       1.0000    0.04980   0.64500   0.59330   Biso      1.000     O          -0.584342           
         O28       1.0000    0.55270   0.58590   0.33220   Biso      1.000     O          -0.477782           
         O29       1.0000    0.62960   0.44290   0.46530   Biso      1.000     O          -0.64601  
         O30       1.0000    0.84050   0.33650   0.98700   Biso      1.000     O          -0.562779           
         O31       1.0000    0.68690   0.28620   0.59010   Biso      1.000     O          -0.474408           
         O32       1.0000    0.54980   0.14500   0.90670   Biso      1.000     O          -0.583013           
         S1        1.0000    0.38017   0.19104   0.93452   Biso      1.000     S          1.217274  
         S2        1.0000    0.11983   0.30896   0.43452   Biso      1.000     S          1.217875  
         S3        1.0000    0.61983   0.80896   0.06548   Biso      1.000     S          1.217251  
         S4        1.0000    0.88017   0.69104   0.56548   Biso      1.000     S          1.217854 