
##########################################################################
#               Crystallographic Information Format file
#               Produced by PyCifRW module
#
#  This is a CIF file.  CIF has been adopted by the International
#  Union of Crystallography as the standard for data archiving and
#  transmission.
#
#  For information on this file format, follow the CIF links at
#  http://www.iucr.org
##########################################################################

data_image0

_cell_length_a                          7.3354
_cell_length_b                          10.179
_cell_length_c                          18.14
_cell_angle_alpha                       90
_cell_angle_beta                        90
_cell_angle_gamma                       94.337
_symmetry_space_group_name_H-M          'P 1'
_symmetry_int_tables_number             1
loop_
  _symmetry_equiv_pos_as_xyz
         'x, y, z' 
loop_
  _atom_site_label
  _atom_site_occupancy
  _atom_site_fract_x
  _atom_site_fract_y
  _atom_site_fract_z
  _atom_site_thermal_displace_type
  _atom_site_B_iso_or_equiv
  _atom_site_type_symbol
  _atom_site_charge
         C1        1.0000    0.30130   0.81790   0.44660   Biso      1.000     C          0.627699  
         C2        1.0000    0.72900   0.43090   0.09500   Biso      1.000     C          -0.004476           
         C3        1.0000    0.63850   0.65040   0.10410   Biso      1.000     C          -0.087173           
         C4        1.0000    0.69870   0.18210   0.55340   Biso      1.000     C          0.62769   
         C5        1.0000    0.80090   0.95040   0.56130   Biso      1.000     C          -0.114999           
         C6        1.0000    0.89600   0.86510   0.67920   Biso      1.000     C          -0.107879           
         C7        1.0000    0.90200   0.00910   0.79290   Biso      1.000     C          0.630567  
         C8        1.0000    0.86790   0.98480   0.71240   Biso      1.000     C          -0.011821           
         C9        1.0000    0.80360   0.08610   0.67000   Biso      1.000     C          -0.100447           
         C10       1.0000    0.77100   0.06910   0.59500   Biso      1.000     C          -0.004769           
         C11       1.0000    0.86150   0.84960   0.60410   Biso      1.000     C          -0.086817           
         C12       1.0000    0.59800   0.49090   0.29290   Biso      1.000     C          0.630522  
         C13       1.0000    0.60400   0.63490   0.17920   Biso      1.000     C          -0.107814           
         C14       1.0000    0.69910   0.54960   0.06130   Biso      1.000     C          -0.114933           
         C15       1.0000    0.80130   0.31790   0.05340   Biso      1.000     C          0.627577  
         C16       1.0000    0.13850   0.15040   0.39590   Biso      1.000     C          -0.086801           
         C17       1.0000    0.22900   0.93090   0.40500   Biso      1.000     C          -0.004759           
         C18       1.0000    0.19640   0.91390   0.33000   Biso      1.000     C          -0.100459           
         C19       1.0000    0.13210   0.01520   0.28760   Biso      1.000     C          -0.011815           
         C20       1.0000    0.09800   0.99090   0.20710   Biso      1.000     C          0.63058   
         C21       1.0000    0.10400   0.13490   0.32080   Biso      1.000     C          -0.107833           
         C22       1.0000    0.19910   0.04960   0.43870   Biso      1.000     C          -0.114972           
         C23       1.0000    0.36150   0.34960   0.89590   Biso      1.000     C          -0.087143           
         C24       1.0000    0.27100   0.56910   0.90500   Biso      1.000     C          -0.00446  
         C25       1.0000    0.30360   0.58610   0.83000   Biso      1.000     C          -0.100475           
         C26       1.0000    0.36790   0.48480   0.78760   Biso      1.000     C          -0.011829           
         C27       1.0000    0.40200   0.50910   0.70710   Biso      1.000     C          0.630538  
         C28       1.0000    0.39600   0.36510   0.82080   Biso      1.000     C          -0.107764           
         C29       1.0000    0.30090   0.45040   0.93870   Biso      1.000     C          -0.114917           
         C30       1.0000    0.19870   0.68210   0.94660   Biso      1.000     C          0.627577  
         C31       1.0000    0.69640   0.41390   0.17000   Biso      1.000     C          -0.100458           
         C32       1.0000    0.63210   0.51520   0.21240   Biso      1.000     C          -0.011824           
         Cu1       1.0000    0.86543   0.21696   0.90551   Biso      1.000     Cu          0.974846  
         Cu2       1.0000    0.63457   0.28304   0.40551   Biso      1.000     Cu          0.976337  
         Cu3       1.0000    0.04321   0.93155   0.93150   Biso      1.000     Cu          1.062786  
         Cu4       1.0000    0.45679   0.56845   0.43150   Biso      1.000     Cu          1.065584  
         Cu5       1.0000    0.13457   0.78304   0.09449   Biso      1.000     Cu          0.974914  
         Cu6       1.0000    0.95679   0.06845   0.06850   Biso      1.000     Cu          1.062802  
         Cu7       1.0000    0.36543   0.71696   0.59449   Biso      1.000     Cu          0.976464  
         Cu8       1.0000    0.54321   0.43155   0.56850   Biso      1.000     Cu          1.065569  
         H1        1.0000    0.28060   0.43860   0.98890   Biso      1.000     H          0.136861  
         H2        1.0000    0.78240   0.16590   0.69230   Biso      1.000     H          0.137808  
         H3        1.0000    0.43730   0.29620   0.79320   Biso      1.000     H          0.139562  
         H4        1.0000    0.78060   0.93860   0.51110   Biso      1.000     H          0.136877  
         H5        1.0000    0.71760   0.33410   0.19230   Biso      1.000     H          0.13792   
         H6        1.0000    0.56270   0.70380   0.20680   Biso      1.000     H          0.139547  
         H7        1.0000    0.71940   0.56140   0.01110   Biso      1.000     H          0.136855  
         H8        1.0000    0.21760   0.83410   0.30770   Biso      1.000     H          0.137817  
         H9        1.0000    0.06270   0.20380   0.29320   Biso      1.000     H          0.13947   
         H10       1.0000    0.21940   0.06140   0.48890   Biso      1.000     H          0.136889  
         H11       1.0000    0.93730   0.79620   0.70680   Biso      1.000     H          0.139462  
         H12       1.0000    0.28240   0.66590   0.80770   Biso      1.000     H          0.137933  
         O1        1.0000    0.18560   0.78590   0.91040   Biso      1.000     O          -0.476526           
         O2        1.0000    0.45080   0.85490   0.09270   Biso      1.000     O          -0.582108           
         O3        1.0000    0.05260   0.08560   0.16804   Biso      1.000     O          -0.475299           
         O4        1.0000    0.12940   0.94260   0.03479   Biso      1.000     O          -0.639478           
         O5        1.0000    0.34120   0.83670   0.51353   Biso      1.000     O          -0.560852           
         O6        1.0000    0.11880   0.87480   0.18607   Biso      1.000     O          -0.526372           
         O7        1.0000    0.12970   0.29810   0.51280   Biso      1.000     O          -0.568384           
         O8        1.0000    0.37060   0.55740   0.53479   Biso      1.000     O          -0.647053           
         O9        1.0000    0.27370   0.38790   0.40270   Biso      1.000     O          -0.672394           
         O10       1.0000    0.95080   0.35490   0.40730   Biso      1.000     O          -0.583669           
         O11       1.0000    0.44740   0.41440   0.66804   Biso      1.000     O          -0.473957           
         O12       1.0000    0.15880   0.66330   0.01353   Biso      1.000     O          -0.56223  
         O13       1.0000    0.38120   0.62520   0.68607   Biso      1.000     O          -0.524434           
         O14       1.0000    0.37030   0.20190   0.01280   Biso      1.000     O          -0.567238           
         O15       1.0000    0.77370   0.88790   0.09730   Biso      1.000     O          -0.67196  
         O16       1.0000    0.31440   0.71410   0.41040   Biso      1.000     O          -0.475692           
         O17       1.0000    0.81440   0.21410   0.08960   Biso      1.000     O          -0.476547           
         O18       1.0000    0.87030   0.70190   0.48720   Biso      1.000     O          -0.568395           
         O19       1.0000    0.61880   0.37480   0.31393   Biso      1.000     O          -0.524466           
         O20       1.0000    0.22630   0.11210   0.90270   Biso      1.000     O          -0.671948           
         O21       1.0000    0.94740   0.91440   0.83196   Biso      1.000     O          -0.475304           
         O22       1.0000    0.87060   0.05740   0.96521   Biso      1.000     O          -0.639509           
         O23       1.0000    0.62970   0.79810   0.98720   Biso      1.000     O          -0.567233           
         O24       1.0000    0.88120   0.12520   0.81393   Biso      1.000     O          -0.526393           
         O25       1.0000    0.65880   0.16330   0.48647   Biso      1.000     O          -0.56092  
         O26       1.0000    0.72630   0.61210   0.59730   Biso      1.000     O          -0.672407           
         O27       1.0000    0.04920   0.64510   0.59270   Biso      1.000     O          -0.583719           
         O28       1.0000    0.55260   0.58560   0.33196   Biso      1.000     O          -0.473966           
         O29       1.0000    0.62940   0.44260   0.46521   Biso      1.000     O          -0.647063           
         O30       1.0000    0.84120   0.33670   0.98647   Biso      1.000     O          -0.562333           
         O31       1.0000    0.68560   0.28590   0.58960   Biso      1.000     O          -0.475713           
         O32       1.0000    0.54920   0.14510   0.90730   Biso      1.000     O          -0.582157           
         S1        1.0000    0.37940   0.19095   0.93463   Biso      1.000     S          1.218054  
         S2        1.0000    0.12060   0.30905   0.43463   Biso      1.000     S          1.218578  
         S3        1.0000    0.62060   0.80905   0.06537   Biso      1.000     S          1.218079  
         S4        1.0000    0.87940   0.69095   0.56537   Biso      1.000     S          1.21859 