
##########################################################################
#               Crystallographic Information Format file
#               Produced by PyCifRW module
#
#  This is a CIF file.  CIF has been adopted by the International
#  Union of Crystallography as the standard for data archiving and
#  transmission.
#
#  For information on this file format, follow the CIF links at
#  http://www.iucr.org
##########################################################################

data_image0

_cell_length_a                          7.302
_cell_length_b                          10.267
_cell_length_c                          18.15
_cell_angle_alpha                       90
_cell_angle_beta                        90
_cell_angle_gamma                       94.01
_symmetry_space_group_name_H-M          'P 1'
_symmetry_int_tables_number             1
loop_
  _symmetry_equiv_pos_as_xyz
         'x, y, z' 
loop_
  _atom_site_label
  _atom_site_occupancy
  _atom_site_fract_x
  _atom_site_fract_y
  _atom_site_fract_z
  _atom_site_thermal_displace_type
  _atom_site_B_iso_or_equiv
  _atom_site_type_symbol
  _atom_site_charge
         C1        1.0000    0.30500   0.81500   0.44670   Biso      1.000     C          0.6425529999999999  
         C2        1.0000    0.73500   0.43300   0.09450   Biso      1.000     C          0.00056   
         C3        1.0000    0.64500   0.64860   0.10360   Biso      1.000     C          -0.088747           
         C4        1.0000    0.69500   0.18500   0.55330   Biso      1.000     C          0.642554  
         C5        1.0000    0.79500   0.95600   0.56120   Biso      1.000     C          -0.10948  
         C6        1.0000    0.89300   0.86920   0.67920   Biso      1.000     C          -0.121299           
         C7        1.0000    0.89600   0.00460   0.79300   Biso      1.000     C          0.631462  
         C8        1.0000    0.86100   0.98510   0.71150   Biso      1.000     C          -0.0065969999999999996        
         C9        1.0000    0.79900   0.08800   0.66900   Biso      1.000     C          -0.10513499999999999          
         C10       1.0000    0.76500   0.06700   0.59450   Biso      1.000     C          0.000602  
         C11       1.0000    0.85500   0.85140   0.60360   Biso      1.000     C          -0.088739           
         C12       1.0000    0.60400   0.49540   0.29300   Biso      1.000     C          0.631468  
         C13       1.0000    0.60700   0.63080   0.17920   Biso      1.000     C          -0.121304           
         C14       1.0000    0.70500   0.54400   0.06120   Biso      1.000     C          -0.10943199999999999          
         C15       1.0000    0.80500   0.31500   0.05330   Biso      1.000     C          0.642548  
         C16       1.0000    0.14500   0.14860   0.39640   Biso      1.000     C          -0.088758           
         C17       1.0000    0.23500   0.93300   0.40550   Biso      1.000     C          0.000553  
         C18       1.0000    0.20100   0.91200   0.33100   Biso      1.000     C          -0.10513399999999999          
         C19       1.0000    0.13900   0.01490   0.28850   Biso      1.000     C          -0.006609           
         C20       1.0000    0.10400   0.99540   0.20700   Biso      1.000     C          0.6314569999999999  
         C21       1.0000    0.10700   0.13080   0.32080   Biso      1.000     C          -0.121294           
         C22       1.0000    0.20500   0.04400   0.43880   Biso      1.000     C          -0.10944000000000001          
         C23       1.0000    0.35500   0.35140   0.89640   Biso      1.000     C          -0.08873099999999999          
         C24       1.0000    0.26500   0.56700   0.90550   Biso      1.000     C          0.0005679999999999999         
         C25       1.0000    0.29900   0.58800   0.83100   Biso      1.000     C          -0.10513  
         C26       1.0000    0.36100   0.48510   0.78850   Biso      1.000     C          -0.006614           
         C27       1.0000    0.39600   0.50460   0.70700   Biso      1.000     C          0.631463  
         C28       1.0000    0.39300   0.36920   0.82080   Biso      1.000     C          -0.12129000000000001          
         C29       1.0000    0.29500   0.45600   0.93880   Biso      1.000     C          -0.10943  
         C30       1.0000    0.19500   0.68500   0.94670   Biso      1.000     C          0.642551  
         C31       1.0000    0.70100   0.41200   0.16900   Biso      1.000     C          -0.105137           
         C32       1.0000    0.63900   0.51490   0.21150   Biso      1.000     C          -0.006612000000000001         
         Cu1       1.0000    0.86410   0.21500   0.90526   Biso      1.000     Cu          0.964426  
         Cu2       1.0000    0.63590   0.28500   0.40526   Biso      1.000     Cu          0.964471  
         Cu3       1.0000    0.03750   0.92920   0.93166   Biso      1.000     Cu          1.062663  
         Cu4       1.0000    0.46250   0.57080   0.43166   Biso      1.000     Cu          1.062684  
         Cu5       1.0000    0.13590   0.78500   0.09474   Biso      1.000     Cu          0.9644229999999999  
         Cu6       1.0000    0.96250   0.07080   0.06834   Biso      1.000     Cu          1.062667  
         Cu7       1.0000    0.36410   0.71500   0.59474   Biso      1.000     Cu          0.964456  
         Cu8       1.0000    0.53750   0.42920   0.56834   Biso      1.000     Cu          1.0626719999999998  
         H1        1.0000    0.27700   0.44630   0.98930   Biso      1.000     H          0.13730699999999998           
         H2        1.0000    0.78080   0.16800   0.69040   Biso      1.000     H          0.139128  
         H3        1.0000    0.44020   0.30270   0.79340   Biso      1.000     H          0.138828  
         H4        1.0000    0.77700   0.94630   0.51070   Biso      1.000     H          0.137309  
         H5        1.0000    0.71920   0.33200   0.19040   Biso      1.000     H          0.139123  
         H6        1.0000    0.55980   0.69730   0.20660   Biso      1.000     H          0.138819  
         H7        1.0000    0.72300   0.55370   0.01070   Biso      1.000     H          0.13729   
         H8        1.0000    0.21920   0.83200   0.30960   Biso      1.000     H          0.139122  
         H9        1.0000    0.05980   0.19730   0.29340   Biso      1.000     H          0.138818  
         H10       1.0000    0.22300   0.05370   0.48930   Biso      1.000     H          0.13729   
         H11       1.0000    0.94020   0.80270   0.70660   Biso      1.000     H          0.138824  
         H12       1.0000    0.28080   0.66800   0.80960   Biso      1.000     H          0.139128  
         O1        1.0000    0.17300   0.77750   0.91040   Biso      1.000     O          -0.45622299999999993          
         O2        1.0000    0.45330   0.85600   0.09000   Biso      1.000     O          -0.57309  
         O3        1.0000    0.05900   0.08440   0.16820   Biso      1.000     O          -0.452059           
         O4        1.0000    0.12970   0.94460   0.03430   Biso      1.000     O          -0.645478           
         O5        1.0000    0.34480   0.83980   0.51450   Biso      1.000     O          -0.579112           
         O6        1.0000    0.12160   0.87420   0.18660   Biso      1.000     O          -0.545956           
         O7        1.0000    0.14800   0.29880   0.51280   Biso      1.000     O          -0.570799           
         O8        1.0000    0.37030   0.55540   0.53430   Biso      1.000     O          -0.645486           
         O9        1.0000    0.27430   0.39060   0.40100   Biso      1.000     O          -0.665528           
         O10       1.0000    0.95330   0.35600   0.41000   Biso      1.000     O          -0.573094           
         O11       1.0000    0.44100   0.41560   0.66820   Biso      1.000     O          -0.452053           
         O12       1.0000    0.15520   0.66020   0.01450   Biso      1.000     O          -0.579105           
         O13       1.0000    0.37840   0.62580   0.68660   Biso      1.000     O          -0.545954           
         O14       1.0000    0.35200   0.20120   0.01280   Biso      1.000     O          -0.570806           
         O15       1.0000    0.77430   0.89060   0.09900   Biso      1.000     O          -0.665515           
         O16       1.0000    0.32700   0.72250   0.41040   Biso      1.000     O          -0.456218           
         O17       1.0000    0.82700   0.22250   0.08960   Biso      1.000     O          -0.45622399999999996          
         O18       1.0000    0.85200   0.70120   0.48720   Biso      1.000     O          -0.570782           
         O19       1.0000    0.62160   0.37420   0.31340   Biso      1.000     O          -0.545941           
         O20       1.0000    0.22570   0.10940   0.90100   Biso      1.000     O          -0.665551           
         O21       1.0000    0.94100   0.91560   0.83180   Biso      1.000     O          -0.452059           
         O22       1.0000    0.87030   0.05540   0.96570   Biso      1.000     O          -0.6454840000000001           
         O23       1.0000    0.64800   0.79880   0.98720   Biso      1.000     O          -0.5707909999999999           
         O24       1.0000    0.87840   0.12580   0.81340   Biso      1.000     O          -0.545953           
         O25       1.0000    0.65520   0.16020   0.48550   Biso      1.000     O          -0.5791   
         O26       1.0000    0.72570   0.60940   0.59900   Biso      1.000     O          -0.665511           
         O27       1.0000    0.04670   0.64400   0.59000   Biso      1.000     O          -0.573084           
         O28       1.0000    0.55900   0.58440   0.33180   Biso      1.000     O          -0.452049           
         O29       1.0000    0.62970   0.44460   0.46570   Biso      1.000     O          -0.645509           
         O30       1.0000    0.84480   0.33980   0.98550   Biso      1.000     O          -0.579108           
         O31       1.0000    0.67300   0.27750   0.58960   Biso      1.000     O          -0.456215           
         O32       1.0000    0.54670   0.14400   0.91000   Biso      1.000     O          -0.573118           
         S1        1.0000    0.37330   0.19070   0.93500   Biso      1.000     S          1.202526  
         S2        1.0000    0.12670   0.30930   0.43500   Biso      1.000     S          1.202516  
         S3        1.0000    0.62670   0.80930   0.06500   Biso      1.000     S          1.202516  
         S4        1.0000    0.87330   0.69070   0.56500   Biso      1.000     S          1.202518 