
##########################################################################
#               Crystallographic Information Format file
#               Produced by PyCifRW module
#
#  This is a CIF file.  CIF has been adopted by the International
#  Union of Crystallography as the standard for data archiving and
#  transmission.
#
#  For information on this file format, follow the CIF links at
#  http://www.iucr.org
##########################################################################

data_image0

_cell_length_a                          7.271
_cell_length_b                          10.212
_cell_length_c                          18.061
_cell_angle_alpha                       90
_cell_angle_beta                        90
_cell_angle_gamma                       94.234
_symmetry_space_group_name_H-M          'P 1'
_symmetry_int_tables_number             1
loop_
  _symmetry_equiv_pos_as_xyz
         'x, y, z' 
loop_
  _atom_site_label
  _atom_site_occupancy
  _atom_site_fract_x
  _atom_site_fract_y
  _atom_site_fract_z
  _atom_site_thermal_displace_type
  _atom_site_B_iso_or_equiv
  _atom_site_type_symbol
  _atom_site_charge
         C1        1.0000    0.30850   0.82090   0.44680   Biso      1.000     C          0.634538  
         C2        1.0000    0.73460   0.43070   0.09490   Biso      1.000     C          -0.006592           
         C3        1.0000    0.64530   0.65050   0.10410   Biso      1.000     C          -0.090447           
         C4        1.0000    0.69150   0.17910   0.55320   Biso      1.000     C          0.63454   
         C5        1.0000    0.79430   0.94960   0.56170   Biso      1.000     C          -0.111585           
         C6        1.0000    0.89030   0.86650   0.67890   Biso      1.000     C          -0.104341           
         C7        1.0000    0.89650   0.00830   0.79220   Biso      1.000     C          0.640407  
         C8        1.0000    0.86120   0.98570   0.71260   Biso      1.000     C          -0.014009           
         C9        1.0000    0.79830   0.08490   0.66950   Biso      1.000     C          -0.096508           
         C10       1.0000    0.76540   0.06930   0.59490   Biso      1.000     C          -0.00659  
         C11       1.0000    0.85470   0.84950   0.60410   Biso      1.000     C          -0.090447           
         C12       1.0000    0.60350   0.49170   0.29220   Biso      1.000     C          0.640403  
         C13       1.0000    0.60970   0.63350   0.17890   Biso      1.000     C          -0.104342           
         C14       1.0000    0.70570   0.55040   0.06170   Biso      1.000     C          -0.111576           
         C15       1.0000    0.80850   0.32090   0.05320   Biso      1.000     C          0.63454   
         C16       1.0000    0.14530   0.15050   0.39590   Biso      1.000     C          -0.090453           
         C17       1.0000    0.23460   0.93070   0.40510   Biso      1.000     C          -0.006599           
         C18       1.0000    0.20170   0.91510   0.33050   Biso      1.000     C          -0.096509           
         C19       1.0000    0.13880   0.01430   0.28740   Biso      1.000     C          -0.01401  
         C20       1.0000    0.10350   0.99170   0.20780   Biso      1.000     C          0.640392  
         C21       1.0000    0.10970   0.13350   0.32110   Biso      1.000     C          -0.104352           
         C22       1.0000    0.20570   0.05040   0.43830   Biso      1.000     C          -0.111584           
         C23       1.0000    0.35470   0.34950   0.89590   Biso      1.000     C          -0.090451           
         C24       1.0000    0.26540   0.56930   0.90510   Biso      1.000     C          -0.006597           
         C25       1.0000    0.29830   0.58490   0.83050   Biso      1.000     C          -0.096512           
         C26       1.0000    0.36120   0.48570   0.78740   Biso      1.000     C          -0.014014           
         C27       1.0000    0.39650   0.50830   0.70780   Biso      1.000     C          0.640391  
         C28       1.0000    0.39030   0.36650   0.82110   Biso      1.000     C          -0.104353           
         C29       1.0000    0.29430   0.44960   0.93830   Biso      1.000     C          -0.111582           
         C30       1.0000    0.19150   0.67910   0.94680   Biso      1.000     C          0.634535  
         C31       1.0000    0.70170   0.41510   0.16950   Biso      1.000     C          -0.096503           
         C32       1.0000    0.63880   0.51430   0.21260   Biso      1.000     C          -0.014017           
         Cu1       1.0000    0.86315   0.21454   0.90555   Biso      1.000     Cu          0.984453  
         Cu2       1.0000    0.63685   0.28546   0.40555   Biso      1.000     Cu          0.984448  
         Cu3       1.0000    0.03655   0.92917   0.93160   Biso      1.000     Cu          1.075118  
         Cu4       1.0000    0.46345   0.57083   0.43160   Biso      1.000     Cu          1.07512   
         Cu5       1.0000    0.13685   0.78546   0.09445   Biso      1.000     Cu          0.984431  
         Cu6       1.0000    0.96345   0.07083   0.06840   Biso      1.000     Cu          1.075114  
         Cu7       1.0000    0.36315   0.71454   0.59445   Biso      1.000     Cu          0.984444  
         Cu8       1.0000    0.53655   0.42917   0.56840   Biso      1.000     Cu          1.075112  
         H1        1.0000    0.27290   0.43750   0.98870   Biso      1.000     H          0.133055  
         H2        1.0000    0.77760   0.16480   0.69160   Biso      1.000     H          0.133876  
         H3        1.0000    0.43350   0.29840   0.79350   Biso      1.000     H          0.136695  
         H4        1.0000    0.77290   0.93750   0.51130   Biso      1.000     H          0.13306   
         H5        1.0000    0.72240   0.33520   0.19160   Biso      1.000     H          0.133877  
         H6        1.0000    0.56650   0.70160   0.20650   Biso      1.000     H          0.13669   
         H7        1.0000    0.72710   0.56250   0.01130   Biso      1.000     H          0.13306   
         H8        1.0000    0.22240   0.83520   0.30840   Biso      1.000     H          0.133873  
         H9        1.0000    0.06650   0.20160   0.29350   Biso      1.000     H          0.136693  
         H10       1.0000    0.22710   0.06250   0.48870   Biso      1.000     H          0.133055  
         H11       1.0000    0.93350   0.79840   0.70650   Biso      1.000     H          0.13669   
         H12       1.0000    0.27760   0.66480   0.80840   Biso      1.000     H          0.133875  
         O1        1.0000    0.17200   0.78220   0.91060   Biso      1.000     O          -0.487604           
         O2        1.0000    0.45500   0.85090   0.08950   Biso      1.000     O          -0.588823           
         O3        1.0000    0.05710   0.08440   0.16800   Biso      1.000     O          -0.479319           
         O4        1.0000    0.13110   0.94270   0.03420   Biso      1.000     O          -0.64088  
         O5        1.0000    0.34500   0.83750   0.51420   Biso      1.000     O          -0.563296           
         O6        1.0000    0.12610   0.87710   0.18610   Biso      1.000     O          -0.53136  
         O7        1.0000    0.14730   0.29800   0.51320   Biso      1.000     O          -0.582798           
         O8        1.0000    0.36890   0.55730   0.53420   Biso      1.000     O          -0.640887           
         O9        1.0000    0.27560   0.38670   0.40150   Biso      1.000     O          -0.676799           
         O10       1.0000    0.95500   0.35090   0.41050   Biso      1.000     O          -0.58884  
         O11       1.0000    0.44290   0.41560   0.66800   Biso      1.000     O          -0.479314           
         O12       1.0000    0.15500   0.66250   0.01420   Biso      1.000     O          -0.563296           
         O13       1.0000    0.37390   0.62290   0.68610   Biso      1.000     O          -0.531356           
         O14       1.0000    0.35270   0.20200   0.01320   Biso      1.000     O          -0.582795           
         O15       1.0000    0.77560   0.88670   0.09850   Biso      1.000     O          -0.676776           
         O16       1.0000    0.32800   0.71780   0.41060   Biso      1.000     O          -0.487599           
         O17       1.0000    0.82800   0.21780   0.08940   Biso      1.000     O          -0.487601           
         O18       1.0000    0.85270   0.70200   0.48680   Biso      1.000     O          -0.58278  
         O19       1.0000    0.62610   0.37710   0.31390   Biso      1.000     O          -0.531339           
         O20       1.0000    0.22440   0.11330   0.90150   Biso      1.000     O          -0.676799           
         O21       1.0000    0.94290   0.91560   0.83200   Biso      1.000     O          -0.479317           
         O22       1.0000    0.86890   0.05730   0.96580   Biso      1.000     O          -0.640881           
         O23       1.0000    0.64730   0.79800   0.98680   Biso      1.000     O          -0.582779           
         O24       1.0000    0.87390   0.12290   0.81390   Biso      1.000     O          -0.531346           
         O25       1.0000    0.65500   0.16250   0.48580   Biso      1.000     O          -0.563277           
         O26       1.0000    0.72440   0.61330   0.59850   Biso      1.000     O          -0.676781           
         O27       1.0000    0.04500   0.64910   0.58950   Biso      1.000     O          -0.588825           
         O28       1.0000    0.55710   0.58440   0.33200   Biso      1.000     O          -0.479311           
         O29       1.0000    0.63110   0.44270   0.46580   Biso      1.000     O          -0.640864           
         O30       1.0000    0.84500   0.33750   0.98580   Biso      1.000     O          -0.563281           
         O31       1.0000    0.67200   0.28220   0.58940   Biso      1.000     O          -0.487597           
         O32       1.0000    0.54500   0.14910   0.91050   Biso      1.000     O          -0.588839           
         S1        1.0000    0.37220   0.19189   0.93516   Biso      1.000     S          1.236207  
         S2        1.0000    0.12780   0.30811   0.43516   Biso      1.000     S          1.236217  
         S3        1.0000    0.62780   0.80811   0.06484   Biso      1.000     S          1.236208  
         S4        1.0000    0.87220   0.69189   0.56484   Biso      1.000     S          1.236217 