
##########################################################################
#               Crystallographic Information Format file
#               Produced by PyCifRW module
#
#  This is a CIF file.  CIF has been adopted by the International
#  Union of Crystallography as the standard for data archiving and
#  transmission.
#
#  For information on this file format, follow the CIF links at
#  http://www.iucr.org
##########################################################################

data_image0

_cell_length_a                          24.585
_cell_length_b                          13.1726
_cell_length_c                          14.829
_cell_angle_alpha                       90
_cell_angle_beta                        96.419
_cell_angle_gamma                       90
_symmetry_space_group_name_H-M          'P 1'
_symmetry_int_tables_number             1
loop_
  _symmetry_equiv_pos_as_xyz
         'x, y, z' 
loop_
  _atom_site_label
  _atom_site_occupancy
  _atom_site_fract_x
  _atom_site_fract_y
  _atom_site_fract_z
  _atom_site_thermal_displace_type
  _atom_site_B_iso_or_equiv
  _atom_site_type_symbol
  _atom_site_charge
         C1        1.0000    0.36936   0.60060   0.66287   Biso      1.000     C          0.081415  
         C2        1.0000    0.04053   0.93690   0.39300   Biso      1.000     C          -0.147044           
         C3        1.0000    0.07591   0.86750   0.36088   Biso      1.000     C          0.08391   
         C4        1.0000    0.07591   0.13250   0.86088   Biso      1.000     C          0.083909  
         C5        1.0000    0.06001   0.76650   0.35490   Biso      1.000     C          -0.147549           
         C6        1.0000    0.04053   0.06310   0.89300   Biso      1.000     C          -0.147043           
         C7        1.0000    0.01102   0.73530   0.38360   Biso      1.000     C          -0.096953           
         C8        1.0000    0.97681   0.80420   0.41880   Biso      1.000     C          -0.021201           
         C9        1.0000    0.92623   0.77130   0.45860   Biso      1.000     C          0.592644  
         C10       1.0000    0.92409   0.13250   0.63912   Biso      1.000     C          0.08391   
         C11       1.0000    0.95947   0.06310   0.60700   Biso      1.000     C          -0.147035           
         C12       1.0000    0.99133   0.09490   0.92110   Biso      1.000     C          -0.099275           
         C13       1.0000    0.00867   0.09490   0.57890   Biso      1.000     C          -0.099268           
         C14       1.0000    0.86936   0.10060   0.66287   Biso      1.000     C          0.081423  
         C15       1.0000    0.72690   0.32590   0.16508   Biso      1.000     C          0.677141  
         C16       1.0000    0.74880   0.56990   0.42539   Biso      1.000     C          0.657965  
         C17       1.0000    0.13064   0.10060   0.83713   Biso      1.000     C          0.081421  
         C18       1.0000    0.66142   0.47340   0.38653   Biso      1.000     C          -0.161589           
         C19       1.0000    0.71459   0.49502   0.36875   Biso      1.000     C          -0.01906  
         C20       1.0000    0.15293   0.14730   0.76502   Biso      1.000     C          -0.147786           
         C21       1.0000    0.73686   0.44530   0.29873   Biso      1.000     C          -0.12321  
         C22       1.0000    0.70547   0.37630   0.24499   Biso      1.000     C          -0.017837           
         C23       1.0000    0.65293   0.35270   0.26502   Biso      1.000     C          -0.147782           
         C24       1.0000    0.63064   0.39940   0.33713   Biso      1.000     C          0.081419  
         C25       1.0000    0.20547   0.12370   0.74499   Biso      1.000     C          -0.01784  
         C26       1.0000    0.49133   0.40510   0.42110   Biso      1.000     C          -0.099271           
         C27       1.0000    0.23686   0.05470   0.79873   Biso      1.000     C          -0.123214           
         C28       1.0000    0.73686   0.55470   0.79873   Biso      1.000     C          -0.12321  
         C29       1.0000    0.99133   0.90510   0.42110   Biso      1.000     C          -0.099274           
         C30       1.0000    0.06001   0.23350   0.85490   Biso      1.000     C          -0.147549           
         C31       1.0000    0.13064   0.89940   0.33713   Biso      1.000     C          0.081422  
         C32       1.0000    0.15293   0.85270   0.26502   Biso      1.000     C          -0.147786           
         C33       1.0000    0.70547   0.62370   0.74499   Biso      1.000     C          -0.017841           
         C34       1.0000    0.66142   0.52660   0.88653   Biso      1.000     C          -0.161587           
         C35       1.0000    0.65293   0.64730   0.76502   Biso      1.000     C          -0.147782           
         C36       1.0000    0.63064   0.60060   0.83713   Biso      1.000     C          0.081422  
         C37       1.0000    0.49133   0.59490   0.92110   Biso      1.000     C          -0.099269           
         C38       1.0000    0.74880   0.43010   0.92539   Biso      1.000     C          0.657962  
         C39       1.0000    0.54053   0.56310   0.89300   Biso      1.000     C          -0.147041           
         C40       1.0000    0.57591   0.63250   0.86088   Biso      1.000     C          0.083913  
         C41       1.0000    0.72690   0.67410   0.66508   Biso      1.000     C          0.67715   
         C42       1.0000    0.56001   0.73350   0.85490   Biso      1.000     C          -0.147546           
         C43       1.0000    0.27310   0.67410   0.83492   Biso      1.000     C          0.677149  
         C44       1.0000    0.51102   0.76470   0.88360   Biso      1.000     C          -0.09695  
         C45       1.0000    0.47681   0.69580   0.91880   Biso      1.000     C          -0.021206           
         C46       1.0000    0.57591   0.36750   0.36088   Biso      1.000     C          0.083913  
         C47       1.0000    0.42623   0.72870   0.95860   Biso      1.000     C          0.592627  
         C48       1.0000    0.07377   0.22870   0.54140   Biso      1.000     C          0.592629  
         C49       1.0000    0.02319   0.19580   0.58120   Biso      1.000     C          -0.021209           
         C50       1.0000    0.98898   0.26470   0.61640   Biso      1.000     C          -0.096948           
         C51       1.0000    0.92623   0.22870   0.95860   Biso      1.000     C          0.592644  
         C52       1.0000    0.93999   0.23350   0.64510   Biso      1.000     C          -0.147543           
         C53       1.0000    0.22690   0.82590   0.16508   Biso      1.000     C          0.67715   
         C54       1.0000    0.24880   0.06990   0.42539   Biso      1.000     C          0.657982  
         C55       1.0000    0.97681   0.19580   0.91880   Biso      1.000     C          -0.021203           
         C56       1.0000    0.16142   0.97340   0.38653   Biso      1.000     C          -0.161588           
         C57       1.0000    0.21459   0.99502   0.36875   Biso      1.000     C          -0.019059           
         C58       1.0000    0.01102   0.26470   0.88360   Biso      1.000     C          -0.096951           
         C59       1.0000    0.23686   0.94530   0.29873   Biso      1.000     C          -0.123213           
         C60       1.0000    0.20547   0.87630   0.24499   Biso      1.000     C          -0.01784  
         C61       1.0000    0.25120   0.43010   0.57461   Biso      1.000     C          0.65798   
         C62       1.0000    0.56001   0.26650   0.35490   Biso      1.000     C          -0.147546           
         C63       1.0000    0.54053   0.43690   0.39300   Biso      1.000     C          -0.147041           
         C64       1.0000    0.51102   0.23530   0.38360   Biso      1.000     C          -0.09695  
         C65       1.0000    0.98898   0.73530   0.11640   Biso      1.000     C          -0.09695  
         C66       1.0000    0.21459   0.00498   0.86875   Biso      1.000     C          -0.019059           
         C67       1.0000    0.07377   0.77130   0.04140   Biso      1.000     C          0.592629  
         C68       1.0000    0.75120   0.93010   0.57461   Biso      1.000     C          0.657991  
         C69       1.0000    0.77310   0.17410   0.83492   Biso      1.000     C          0.677161  
         C70       1.0000    0.34707   0.64730   0.73498   Biso      1.000     C          -0.147788           
         C71       1.0000    0.57377   0.72870   0.54140   Biso      1.000     C          0.59263   
         C72       1.0000    0.52319   0.69580   0.58120   Biso      1.000     C          -0.021216           
         C73       1.0000    0.48898   0.76470   0.61640   Biso      1.000     C          -0.09695  
         C74       1.0000    0.27310   0.32590   0.33492   Biso      1.000     C          0.677149  
         C75       1.0000    0.25120   0.56990   0.07461   Biso      1.000     C          0.65798   
         C76       1.0000    0.33858   0.47340   0.11347   Biso      1.000     C          -0.161589           
         C77       1.0000    0.28541   0.49502   0.13125   Biso      1.000     C          -0.019056           
         C78       1.0000    0.29453   0.62370   0.75501   Biso      1.000     C          -0.017837           
         C79       1.0000    0.43999   0.73350   0.64510   Biso      1.000     C          -0.147543           
         C80       1.0000    0.29453   0.37630   0.25501   Biso      1.000     C          -0.017837           
         C81       1.0000    0.34707   0.35270   0.23498   Biso      1.000     C          -0.147788           
         C82       1.0000    0.36936   0.39940   0.16287   Biso      1.000     C          0.081416  
         C83       1.0000    0.42409   0.63250   0.63912   Biso      1.000     C          0.083919  
         C84       1.0000    0.50867   0.40510   0.07890   Biso      1.000     C          -0.099273           
         C85       1.0000    0.45947   0.56310   0.60700   Biso      1.000     C          -0.14704  
         C86       1.0000    0.45947   0.43690   0.10700   Biso      1.000     C          -0.147042           
         C87       1.0000    0.42409   0.36750   0.13912   Biso      1.000     C          0.083919  
         C88       1.0000    0.43999   0.26650   0.14510   Biso      1.000     C          -0.147545           
         C89       1.0000    0.50867   0.59490   0.57890   Biso      1.000     C          -0.099272           
         C90       1.0000    0.48898   0.23530   0.11640   Biso      1.000     C          -0.09695  
         C91       1.0000    0.52319   0.30420   0.08120   Biso      1.000     C          -0.02121  
         C92       1.0000    0.57377   0.27130   0.04140   Biso      1.000     C          0.592638  
         C93       1.0000    0.26314   0.44530   0.20127   Biso      1.000     C          -0.123207           
         C94       1.0000    0.93999   0.76650   0.14510   Biso      1.000     C          -0.147544           
         C95       1.0000    0.02319   0.80420   0.08120   Biso      1.000     C          -0.021209           
         C96       1.0000    0.92409   0.86750   0.13912   Biso      1.000     C          0.083911  
         C97       1.0000    0.47681   0.30420   0.41880   Biso      1.000     C          -0.021207           
         C98       1.0000    0.42623   0.27130   0.45860   Biso      1.000     C          0.592627  
         C99       1.0000    0.84707   0.14730   0.73498   Biso      1.000     C          -0.147775           
         C100      1.0000    0.16142   0.02660   0.88653   Biso      1.000     C          -0.161586           
         C101      1.0000    0.79453   0.12370   0.75501   Biso      1.000     C          -0.017842           
         C102      1.0000    0.76314   0.05470   0.70127   Biso      1.000     C          -0.123215           
         C103      1.0000    0.78541   0.00498   0.63125   Biso      1.000     C          -0.019063           
         C104      1.0000    0.83858   0.02660   0.61347   Biso      1.000     C          -0.161575           
         C105      1.0000    0.77310   0.82590   0.33492   Biso      1.000     C          0.677153  
         C106      1.0000    0.75120   0.06990   0.07461   Biso      1.000     C          0.657986  
         C107      1.0000    0.26314   0.55470   0.70127   Biso      1.000     C          -0.123208           
         C108      1.0000    0.83858   0.97340   0.11347   Biso      1.000     C          -0.161581           
         C109      1.0000    0.78541   0.99502   0.13125   Biso      1.000     C          -0.019064           
         C110      1.0000    0.22690   0.17410   0.66508   Biso      1.000     C          0.67715   
         C111      1.0000    0.24880   0.93010   0.92539   Biso      1.000     C          0.657982  
         C112      1.0000    0.76314   0.94530   0.20127   Biso      1.000     C          -0.123214           
         C113      1.0000    0.95947   0.93690   0.10700   Biso      1.000     C          -0.147036           
         C114      1.0000    0.00867   0.90510   0.07890   Biso      1.000     C          -0.099269           
         C115      1.0000    0.28541   0.50498   0.63125   Biso      1.000     C          -0.019055           
         C116      1.0000    0.86936   0.89940   0.16287   Biso      1.000     C          0.081421  
         C117      1.0000    0.71459   0.50498   0.86875   Biso      1.000     C          -0.01906  
         C118      1.0000    0.33858   0.52660   0.61347   Biso      1.000     C          -0.161587           
         C119      1.0000    0.79453   0.87630   0.25501   Biso      1.000     C          -0.017839           
         C120      1.0000    0.84707   0.85270   0.23498   Biso      1.000     C          -0.147778           
         H1        1.0000    0.41740   0.78090   0.66880   Biso      1.000     H          0.117572  
         H2        1.0000    0.27270   0.04160   0.78800   Biso      1.000     H          0.1331    
         H3        1.0000    0.08260   0.28090   0.83120   Biso      1.000     H          0.117569  
         H4        1.0000    0.96780   0.04720   0.94180   Biso      1.000     H          0.114631  
         H5        1.0000    0.22730   0.54160   0.71200   Biso      1.000     H          0.133103  
         H6        1.0000    0.64630   0.49130   0.93190   Biso      1.000     H          0.131746  
         H7        1.0000    0.45020   0.49460   0.60410   Biso      1.000     H          0.117217  
         H8        1.0000    0.00110   0.33270   0.87920   Biso      1.000     H          0.121505  
         H9        1.0000    0.49890   0.83270   0.62080   Biso      1.000     H          0.121505  
         H10       1.0000    0.13230   0.19500   0.72980   Biso      1.000     H          0.127546  
         H11       1.0000    0.04980   0.99460   0.89590   Biso      1.000     H          0.117215  
         H12       1.0000    0.35370   0.49130   0.56810   Biso      1.000     H          0.131744  
         H13       1.0000    0.36770   0.69500   0.77020   Biso      1.000     H          0.127545  
         H14       1.0000    0.14630   0.99130   0.93190   Biso      1.000     H          0.131744  
         H15       1.0000    0.08260   0.71910   0.33120   Biso      1.000     H          0.117569  
         H16       1.0000    0.63230   0.69500   0.72980   Biso      1.000     H          0.127547  
         H17       1.0000    0.54980   0.50540   0.39590   Biso      1.000     H          0.117216  
         H18       1.0000    0.58260   0.21910   0.33120   Biso      1.000     H          0.11757   
         H19       1.0000    0.50110   0.16730   0.37920   Biso      1.000     H          0.121506  
         H20       1.0000    0.86770   0.19500   0.77020   Biso      1.000     H          0.127552  
         H21       1.0000    0.72730   0.04160   0.71200   Biso      1.000     H          0.133099  
         H22       1.0000    0.85370   0.00870   0.06810   Biso      1.000     H          0.131749  
         H23       1.0000    0.72730   0.95840   0.21200   Biso      1.000     H          0.1331    
         H24       1.0000    0.86770   0.80500   0.27020   Biso      1.000     H          0.127551  
         H25       1.0000    0.03220   0.95280   0.05820   Biso      1.000     H          0.114633  
         H26       1.0000    0.77270   0.54160   0.78800   Biso      1.000     H          0.133104  
         H27       1.0000    0.95020   0.00540   0.10410   Biso      1.000     H          0.11722   
         H28       1.0000    0.99890   0.66730   0.12080   Biso      1.000     H          0.121507  
         H29       1.0000    0.85370   0.99130   0.56810   Biso      1.000     H          0.131751  
         H30       1.0000    0.35370   0.50870   0.06810   Biso      1.000     H          0.131744  
         H31       1.0000    0.22730   0.45840   0.21200   Biso      1.000     H          0.133103  
         H32       1.0000    0.36770   0.30500   0.27020   Biso      1.000     H          0.127546  
         H33       1.0000    0.53220   0.45280   0.05820   Biso      1.000     H          0.114631  
         H34       1.0000    0.45020   0.50540   0.10410   Biso      1.000     H          0.117217  
         H35       1.0000    0.41740   0.21910   0.16880   Biso      1.000     H          0.117571  
         H36       1.0000    0.49890   0.16730   0.12080   Biso      1.000     H          0.121505  
         H37       1.0000    0.91740   0.71910   0.16880   Biso      1.000     H          0.11757   
         H38       1.0000    0.63230   0.30500   0.22980   Biso      1.000     H          0.127548  
         H39       1.0000    0.46780   0.45280   0.44180   Biso      1.000     H          0.114632  
         H40       1.0000    0.64630   0.50870   0.43190   Biso      1.000     H          0.131744  
         H41       1.0000    0.58260   0.78090   0.83120   Biso      1.000     H          0.117569  
         H42       1.0000    0.54980   0.49460   0.89590   Biso      1.000     H          0.117216  
         H43       1.0000    0.50110   0.83270   0.87920   Biso      1.000     H          0.121506  
         H44       1.0000    0.77270   0.45840   0.28800   Biso      1.000     H          0.133104  
         H45       1.0000    0.46780   0.54720   0.94180   Biso      1.000     H          0.114633  
         H46       1.0000    0.99890   0.33270   0.62080   Biso      1.000     H          0.121507  
         H47       1.0000    0.14630   0.00870   0.43190   Biso      1.000     H          0.131744  
         H48       1.0000    0.27270   0.95840   0.28800   Biso      1.000     H          0.1331    
         H49       1.0000    0.96780   0.95280   0.44180   Biso      1.000     H          0.114631  
         H50       1.0000    0.04980   0.00540   0.39590   Biso      1.000     H          0.117215  
         H51       1.0000    0.53220   0.54720   0.55820   Biso      1.000     H          0.11463   
         H52       1.0000    0.00110   0.66730   0.37920   Biso      1.000     H          0.121505  
         H53       1.0000    0.91740   0.28090   0.66880   Biso      1.000     H          0.11757   
         H54       1.0000    0.95020   0.99460   0.60410   Biso      1.000     H          0.11722   
         H55       1.0000    0.03220   0.04720   0.55820   Biso      1.000     H          0.114633  
         H56       1.0000    0.13230   0.80500   0.22980   Biso      1.000     H          0.127546  
         O1        1.0000    0.27413   0.35517   0.54006   Biso      1.000     O          -0.769811           
         O2        1.0000    0.20082   0.44274   0.56179   Biso      1.000     O          -0.598032           
         O3        1.0000    0.60148   0.66474   0.50481   Biso      1.000     O          -0.656748           
         O4        1.0000    0.22590   0.65055   0.85257   Biso      1.000     O          -0.714588           
         O5        1.0000    0.70082   0.94274   0.56179   Biso      1.000     O          -0.59803  
         O6        1.0000    0.77413   0.85517   0.54006   Biso      1.000     O          -0.769825           
         O7        1.0000    0.10148   0.16474   0.50481   Biso      1.000     O          -0.656746           
         O8        1.0000    0.08729   0.32168   0.54450   Biso      1.000     O          -0.670164           
         O9        1.0000    0.30406   0.73648   0.87793   Biso      1.000     O          -0.637214           
         O10       1.0000    0.58729   0.82168   0.54450   Biso      1.000     O          -0.670165           
         O11       1.0000    0.19594   0.76352   0.12207   Biso      1.000     O          -0.637213           
         O12       1.0000    0.80406   0.23648   0.87793   Biso      1.000     O          -0.637216           
         O13       1.0000    0.19594   0.23648   0.62207   Biso      1.000     O          -0.637213           
         O14       1.0000    0.91271   0.67832   0.45550   Biso      1.000     O          -0.670173           
         O15       1.0000    0.20082   0.55726   0.06179   Biso      1.000     O          -0.598032           
         O16       1.0000    0.69594   0.26352   0.12207   Biso      1.000     O          -0.637189           
         O17       1.0000    0.77410   0.34945   0.14743   Biso      1.000     O          -0.71458  
         O18       1.0000    0.79918   0.55726   0.43821   Biso      1.000     O          -0.597987           
         O19       1.0000    0.72587   0.64483   0.45994   Biso      1.000     O          -0.769822           
         O20       1.0000    0.89852   0.83526   0.49519   Biso      1.000     O          -0.656794           
         O21       1.0000    0.39852   0.33526   0.49519   Biso      1.000     O          -0.656747           
         O22       1.0000    0.22590   0.34945   0.35257   Biso      1.000     O          -0.714589           
         O23       1.0000    0.80406   0.76352   0.37793   Biso      1.000     O          -0.637222           
         O24       1.0000    0.72590   0.84945   0.35257   Biso      1.000     O          -0.714598           
         O25       1.0000    0.70082   0.05726   0.06179   Biso      1.000     O          -0.598021           
         O26       1.0000    0.77413   0.14483   0.04006   Biso      1.000     O          -0.769823           
         O27       1.0000    0.10148   0.83526   0.00481   Biso      1.000     O          -0.656747           
         O28       1.0000    0.41271   0.17832   0.45550   Biso      1.000     O          -0.670165           
         O29       1.0000    0.22587   0.14483   0.45994   Biso      1.000     O          -0.76981  
         O30       1.0000    0.29918   0.05726   0.43821   Biso      1.000     O          -0.598038           
         O31       1.0000    0.27410   0.84945   0.14743   Biso      1.000     O          -0.714594           
         O32       1.0000    0.27410   0.15055   0.64743   Biso      1.000     O          -0.714594           
         O33       1.0000    0.29918   0.94274   0.93821   Biso      1.000     O          -0.598038           
         O34       1.0000    0.22587   0.85517   0.95994   Biso      1.000     O          -0.76981  
         O35       1.0000    0.89852   0.16474   0.99519   Biso      1.000     O          -0.656794           
         O36       1.0000    0.91271   0.32168   0.95550   Biso      1.000     O          -0.670175           
         O37       1.0000    0.58729   0.17832   0.04450   Biso      1.000     O          -0.670172           
         O38       1.0000    0.69594   0.73648   0.62207   Biso      1.000     O          -0.637214           
         O39       1.0000    0.77410   0.65055   0.64743   Biso      1.000     O          -0.714571           
         O40       1.0000    0.79918   0.44274   0.93821   Biso      1.000     O          -0.597982           
         O41       1.0000    0.72587   0.35517   0.95994   Biso      1.000     O          -0.769814           
         O42       1.0000    0.39852   0.66474   0.99519   Biso      1.000     O          -0.656745           
         O43       1.0000    0.41271   0.82168   0.95550   Biso      1.000     O          -0.670164           
         O44       1.0000    0.60148   0.33526   0.00481   Biso      1.000     O          -0.656765           
         O45       1.0000    0.72590   0.15055   0.85257   Biso      1.000     O          -0.714613           
         O46       1.0000    0.27413   0.64483   0.04006   Biso      1.000     O          -0.769812           
         O47       1.0000    0.08729   0.67832   0.04450   Biso      1.000     O          -0.670164           
         O48       1.0000    0.30406   0.26352   0.37793   Biso      1.000     O          -0.637214           
         Sm1       1.0000    0.17172   0.29240   0.46995   Biso      1.000     Sm          2.071652  
         Sm2       1.0000    0.67172   0.79240   0.46995   Biso      1.000     Sm          2.071645  
         Sm3       1.0000    0.32828   0.20760   0.53005   Biso      1.000     Sm          2.071649  
         Sm4       1.0000    0.82827   0.70760   0.53005   Biso      1.000     Sm          2.071636  
         Sm5       1.0000    0.67172   0.20760   0.96994   Biso      1.000     Sm          2.071643  
         Sm6       1.0000    0.17172   0.70760   0.96995   Biso      1.000     Sm          2.071652  
         Sm7       1.0000    0.82827   0.29240   0.03005   Biso      1.000     Sm          2.07164   
         Sm8       1.0000    0.32828   0.79240   0.03005   Biso      1.000     Sm          2.07165 