
##########################################################################
#               Crystallographic Information Format file
#               Produced by PyCifRW module
#
#  This is a CIF file.  CIF has been adopted by the International
#  Union of Crystallography as the standard for data archiving and
#  transmission.
#
#  For information on this file format, follow the CIF links at
#  http://www.iucr.org
##########################################################################

data_image0

_cell_length_a                          24.591
_cell_length_b                          13.804
_cell_length_c                          14.752
_cell_angle_alpha                       90
_cell_angle_beta                        97.135
_cell_angle_gamma                       90
_symmetry_space_group_name_H-M          'P 1'
_symmetry_int_tables_number             1
loop_
  _symmetry_equiv_pos_as_xyz
         'x, y, z' 
loop_
  _atom_site_label
  _atom_site_occupancy
  _atom_site_fract_x
  _atom_site_fract_y
  _atom_site_fract_z
  _atom_site_thermal_displace_type
  _atom_site_B_iso_or_equiv
  _atom_site_type_symbol
  _atom_site_charge
         C1        1.0000    0.57078   0.21930   0.04220   Biso      1.000     C          0.593026  
         C2        1.0000    0.86819   0.40890   0.66640   Biso      1.000     C          0.077683  
         C3        1.0000    0.79311   0.38400   0.75570   Biso      1.000     C          -0.017272           
         C4        1.0000    0.92281   0.37750   0.64130   Biso      1.000     C          0.085685  
         C5        1.0000    0.84564   0.36240   0.73640   Biso      1.000     C          -0.147957           
         C6        1.0000    0.77112   0.33120   0.83350   Biso      1.000     C          0.671649  
         C7        1.0000    0.95836   0.44260   0.60890   Biso      1.000     C          -0.147529           
         C8        1.0000    0.93755   0.28100   0.64550   Biso      1.000     C          -0.147219           
         C9        1.0000    0.00700   0.41070   0.57980   Biso      1.000     C          -0.099206           
         C10       1.0000    0.98608   0.24960   0.61690   Biso      1.000     C          -0.098419           
         C11       1.0000    0.02062   0.31420   0.58170   Biso      1.000     C          -0.023005           
         C12       1.0000    0.07078   0.28070   0.54220   Biso      1.000     C          0.593026  
         C13       1.0000    0.25034   0.07540   0.57835   Biso      1.000     C          0.646731  
         C14       1.0000    0.28490   0.00200   0.63470   Biso      1.000     C          -0.021432           
         C15       1.0000    0.33779   0.98150   0.61780   Biso      1.000     C          -0.158625           
         C16       1.0000    0.26222   0.95160   0.70310   Biso      1.000     C          -0.123967           
         C17       1.0000    0.76222   0.45160   0.70310   Biso      1.000     C          -0.123966           
         C18       1.0000    0.83779   0.48150   0.61780   Biso      1.000     C          -0.158627           
         C19       1.0000    0.78490   0.50200   0.63470   Biso      1.000     C          -0.021431           
         C20       1.0000    0.75034   0.57540   0.57835   Biso      1.000     C          0.646731  
         C21       1.0000    0.02062   0.68580   0.08170   Biso      1.000     C          -0.023015           
         C22       1.0000    0.07078   0.71930   0.04220   Biso      1.000     C          0.593026  
         C23       1.0000    0.25034   0.92460   0.07835   Biso      1.000     C          0.646731  
         C24       1.0000    0.28490   0.99800   0.13470   Biso      1.000     C          -0.021432           
         C25       1.0000    0.33779   0.01850   0.11780   Biso      1.000     C          -0.158625           
         C26       1.0000    0.26222   0.04840   0.20310   Biso      1.000     C          -0.123967           
         C27       1.0000    0.36819   0.09110   0.16640   Biso      1.000     C          0.077683  
         C28       1.0000    0.36819   0.90890   0.66640   Biso      1.000     C          0.077683  
         C29       1.0000    0.29311   0.11600   0.25570   Biso      1.000     C          -0.01727  
         C30       1.0000    0.34564   0.13760   0.23640   Biso      1.000     C          -0.147958           
         C31       1.0000    0.27112   0.16880   0.33350   Biso      1.000     C          0.671649  
         C32       1.0000    0.45836   0.05740   0.10890   Biso      1.000     C          -0.147531           
         C33       1.0000    0.43755   0.21900   0.14550   Biso      1.000     C          -0.147224           
         C34       1.0000    0.50700   0.08930   0.07980   Biso      1.000     C          -0.099206           
         C35       1.0000    0.48608   0.25040   0.11690   Biso      1.000     C          -0.098418           
         C36       1.0000    0.52062   0.18580   0.08170   Biso      1.000     C          -0.023005           
         C37       1.0000    0.42281   0.12250   0.14130   Biso      1.000     C          0.08569   
         C38       1.0000    0.29311   0.88400   0.75570   Biso      1.000     C          -0.01727  
         C39       1.0000    0.42281   0.87750   0.64130   Biso      1.000     C          0.085685  
         C40       1.0000    0.34564   0.86240   0.73640   Biso      1.000     C          -0.147958           
         C41       1.0000    0.97938   0.31420   0.91830   Biso      1.000     C          -0.023015           
         C42       1.0000    0.92922   0.28070   0.95780   Biso      1.000     C          0.593026  
         C43       1.0000    0.74966   0.07540   0.92165   Biso      1.000     C          0.646731  
         C44       1.0000    0.71510   0.00200   0.86530   Biso      1.000     C          -0.021432           
         C45       1.0000    0.66221   0.98150   0.88220   Biso      1.000     C          -0.158625           
         C46       1.0000    0.73778   0.95160   0.79690   Biso      1.000     C          -0.123967           
         C47       1.0000    0.63181   0.90890   0.83360   Biso      1.000     C          0.077683  
         C48       1.0000    0.01392   0.24960   0.88310   Biso      1.000     C          -0.098415           
         C49       1.0000    0.70689   0.88400   0.74430   Biso      1.000     C          -0.01727  
         C50       1.0000    0.65436   0.86240   0.76360   Biso      1.000     C          -0.147958           
         C51       1.0000    0.72888   0.83120   0.66650   Biso      1.000     C          0.671649  
         C52       1.0000    0.54164   0.94260   0.89110   Biso      1.000     C          -0.147531           
         C53       1.0000    0.56245   0.78100   0.85450   Biso      1.000     C          -0.147224           
         C54       1.0000    0.49300   0.91070   0.92020   Biso      1.000     C          -0.099206           
         C55       1.0000    0.51392   0.74960   0.88310   Biso      1.000     C          -0.098418           
         C56       1.0000    0.47938   0.81420   0.91830   Biso      1.000     C          -0.023005           
         C57       1.0000    0.57719   0.87750   0.85870   Biso      1.000     C          0.08569   
         C58       1.0000    0.98608   0.75040   0.11690   Biso      1.000     C          -0.098415           
         C59       1.0000    0.99300   0.41070   0.92020   Biso      1.000     C          -0.099201           
         C60       1.0000    0.04164   0.44260   0.89110   Biso      1.000     C          -0.147532           
         C61       1.0000    0.27112   0.83120   0.83350   Biso      1.000     C          0.671649  
         C62       1.0000    0.45836   0.94260   0.60890   Biso      1.000     C          -0.147529           
         C63       1.0000    0.43755   0.78100   0.64550   Biso      1.000     C          -0.147219           
         C64       1.0000    0.50700   0.91070   0.57980   Biso      1.000     C          -0.099206           
         C65       1.0000    0.48608   0.74960   0.61690   Biso      1.000     C          -0.098419           
         C66       1.0000    0.52062   0.81420   0.58170   Biso      1.000     C          -0.023005           
         C67       1.0000    0.57078   0.78070   0.54220   Biso      1.000     C          0.593026  
         C68       1.0000    0.06245   0.28100   0.85450   Biso      1.000     C          -0.147223           
         C69       1.0000    0.24966   0.57540   0.92165   Biso      1.000     C          0.64673   
         C70       1.0000    0.16221   0.48150   0.88220   Biso      1.000     C          -0.158627           
         C71       1.0000    0.23778   0.45160   0.79690   Biso      1.000     C          -0.123968           
         C72       1.0000    0.13181   0.40890   0.83360   Biso      1.000     C          0.077683  
         C73       1.0000    0.20689   0.38400   0.74430   Biso      1.000     C          -0.01727  
         C74       1.0000    0.07719   0.37750   0.85870   Biso      1.000     C          0.08569   
         C75       1.0000    0.15436   0.36240   0.76360   Biso      1.000     C          -0.147958           
         C76       1.0000    0.22888   0.33120   0.66650   Biso      1.000     C          0.671649  
         C77       1.0000    0.21510   0.50200   0.86530   Biso      1.000     C          -0.021431           
         C78       1.0000    0.00700   0.58930   0.07980   Biso      1.000     C          -0.099201           
         C79       1.0000    0.42922   0.78070   0.95780   Biso      1.000     C          0.593026  
         C80       1.0000    0.70689   0.11600   0.24430   Biso      1.000     C          -0.017272           
         C81       1.0000    0.78490   0.49800   0.13470   Biso      1.000     C          -0.021433           
         C82       1.0000    0.75034   0.42460   0.07835   Biso      1.000     C          0.646731  
         C83       1.0000    0.54164   0.05740   0.39110   Biso      1.000     C          -0.147531           
         C84       1.0000    0.56245   0.21900   0.35450   Biso      1.000     C          -0.147224           
         C85       1.0000    0.07719   0.62250   0.35870   Biso      1.000     C          0.085685  
         C86       1.0000    0.15436   0.63760   0.26360   Biso      1.000     C          -0.147959           
         C87       1.0000    0.22888   0.66880   0.16650   Biso      1.000     C          0.671649  
         C88       1.0000    0.49300   0.08930   0.42020   Biso      1.000     C          -0.099206           
         C89       1.0000    0.04164   0.55740   0.39110   Biso      1.000     C          -0.14753  
         C90       1.0000    0.92922   0.71930   0.45780   Biso      1.000     C          0.593026  
         C91       1.0000    0.51392   0.25040   0.38310   Biso      1.000     C          -0.098418           
         C92       1.0000    0.63181   0.09110   0.33360   Biso      1.000     C          0.077683  
         C93       1.0000    0.06245   0.71900   0.35450   Biso      1.000     C          -0.14722  
         C94       1.0000    0.47938   0.18580   0.41830   Biso      1.000     C          -0.023005           
         C95       1.0000    0.97938   0.68580   0.41830   Biso      1.000     C          -0.023015           
         C96       1.0000    0.99300   0.58930   0.42020   Biso      1.000     C          -0.099201           
         C97       1.0000    0.42922   0.21930   0.45780   Biso      1.000     C          0.593026  
         C98       1.0000    0.83779   0.51850   0.11780   Biso      1.000     C          -0.158625           
         C99       1.0000    0.76222   0.54840   0.20310   Biso      1.000     C          -0.123968           
         C100      1.0000    0.20689   0.61600   0.24430   Biso      1.000     C          -0.017271           
         C101      1.0000    0.86819   0.59110   0.16640   Biso      1.000     C          0.077683  
         C102      1.0000    0.93755   0.71900   0.14550   Biso      1.000     C          -0.147223           
         C103      1.0000    0.57719   0.12250   0.35870   Biso      1.000     C          0.08569   
         C104      1.0000    0.95836   0.55740   0.10890   Biso      1.000     C          -0.147532           
         C105      1.0000    0.77112   0.66880   0.33350   Biso      1.000     C          0.671649  
         C106      1.0000    0.73778   0.04840   0.29690   Biso      1.000     C          -0.123966           
         C107      1.0000    0.66221   0.01850   0.38220   Biso      1.000     C          -0.158627           
         C108      1.0000    0.84564   0.63760   0.23640   Biso      1.000     C          -0.147958           
         C109      1.0000    0.71510   0.99800   0.36530   Biso      1.000     C          -0.021431           
         C110      1.0000    0.74966   0.92460   0.42165   Biso      1.000     C          0.646731  
         C111      1.0000    0.24966   0.42460   0.42165   Biso      1.000     C          0.646731  
         C112      1.0000    0.21510   0.49800   0.36530   Biso      1.000     C          -0.021433           
         C113      1.0000    0.16221   0.51850   0.38220   Biso      1.000     C          -0.158625           
         C114      1.0000    0.65436   0.13760   0.26360   Biso      1.000     C          -0.147957           
         C115      1.0000    0.92281   0.62250   0.14130   Biso      1.000     C          0.08569   
         C116      1.0000    0.23778   0.54840   0.29690   Biso      1.000     C          -0.123966           
         C117      1.0000    0.79311   0.61600   0.25570   Biso      1.000     C          -0.017269           
         C118      1.0000    0.13181   0.59110   0.33360   Biso      1.000     C          0.077685  
         C119      1.0000    0.72888   0.16880   0.16650   Biso      1.000     C          0.671649  
         C120      1.0000    0.01392   0.75040   0.38310   Biso      1.000     C          -0.098414           
         Ce1       1.0000    0.33094   0.28869   0.52948   Biso      1.000     Ce          2.050363  
         Ce2       1.0000    0.66906   0.71131   0.47052   Biso      1.000     Ce          2.050363  
         Ce3       1.0000    0.16906   0.78869   0.97052   Biso      1.000     Ce          2.050362  
         Ce4       1.0000    0.83094   0.21131   0.02948   Biso      1.000     Ce          2.050362  
         Ce5       1.0000    0.16906   0.21131   0.47052   Biso      1.000     Ce          2.050362  
         Ce6       1.0000    0.83094   0.78869   0.52948   Biso      1.000     Ce          2.050362  
         Ce7       1.0000    0.33094   0.71131   0.02948   Biso      1.000     Ce          2.050362  
         Ce8       1.0000    0.66906   0.28869   0.97052   Biso      1.000     Ce          2.050362  
         H1        1.0000    0.46930   0.95550   0.94120   Biso      1.000     H          0.112873  
         H2        1.0000    0.35320   0.01650   0.57350   Biso      1.000     H          0.129029  
         H3        1.0000    0.58560   0.73620   0.83200   Biso      1.000     H          0.116837  
         H4        1.0000    0.22620   0.96360   0.71310   Biso      1.000     H          0.130044  
         H5        1.0000    0.55020   0.00820   0.89350   Biso      1.000     H          0.116489  
         H6        1.0000    0.63390   0.81570   0.72900   Biso      1.000     H          0.124385  
         H7        1.0000    0.77380   0.96360   0.78690   Biso      1.000     H          0.130044  
         H8        1.0000    0.64680   0.01650   0.92650   Biso      1.000     H          0.129029  
         H9        1.0000    0.36610   0.81570   0.77100   Biso      1.000     H          0.124385  
         H10       1.0000    0.44980   0.00820   0.60650   Biso      1.000     H          0.116489  
         H11       1.0000    0.14680   0.48350   0.42650   Biso      1.000     H          0.129029  
         H12       1.0000    0.27380   0.53640   0.28690   Biso      1.000     H          0.130044  
         H13       1.0000    0.08560   0.76380   0.33200   Biso      1.000     H          0.116837  
         H14       1.0000    0.53070   0.95550   0.55880   Biso      1.000     H          0.112873  
         H15       1.0000    0.49540   0.68440   0.62150   Biso      1.000     H          0.119754  
         H16       1.0000    0.00460   0.18440   0.87850   Biso      1.000     H          0.119754  
         H17       1.0000    0.96930   0.45550   0.94120   Biso      1.000     H          0.112872  
         H18       1.0000    0.08560   0.23620   0.83200   Biso      1.000     H          0.116837  
         H19       1.0000    0.05020   0.50820   0.89350   Biso      1.000     H          0.116489  
         H20       1.0000    0.13390   0.31570   0.72900   Biso      1.000     H          0.124385  
         H21       1.0000    0.00460   0.81560   0.37850   Biso      1.000     H          0.119754  
         H22       1.0000    0.13390   0.68430   0.22900   Biso      1.000     H          0.124385  
         H23       1.0000    0.96930   0.54450   0.44120   Biso      1.000     H          0.112872  
         H24       1.0000    0.05020   0.49180   0.39350   Biso      1.000     H          0.116489  
         H25       1.0000    0.14680   0.51650   0.92650   Biso      1.000     H          0.129029  
         H26       1.0000    0.27380   0.46360   0.78690   Biso      1.000     H          0.130044  
         H27       1.0000    0.41440   0.73620   0.66800   Biso      1.000     H          0.116837  
         H28       1.0000    0.94980   0.49180   0.10650   Biso      1.000     H          0.116489  
         H29       1.0000    0.77380   0.03640   0.28690   Biso      1.000     H          0.130044  
         H30       1.0000    0.72620   0.46360   0.71310   Biso      1.000     H          0.130044  
         H31       1.0000    0.85320   0.51650   0.57350   Biso      1.000     H          0.129029  
         H32       1.0000    0.46930   0.04450   0.44120   Biso      1.000     H          0.112873  
         H33       1.0000    0.50460   0.31560   0.37850   Biso      1.000     H          0.119754  
         H34       1.0000    0.86610   0.68430   0.27100   Biso      1.000     H          0.124385  
         H35       1.0000    0.50460   0.68440   0.87850   Biso      1.000     H          0.119754  
         H36       1.0000    0.49540   0.31560   0.12150   Biso      1.000     H          0.119754  
         H37       1.0000    0.53070   0.04450   0.05880   Biso      1.000     H          0.112873  
         H38       1.0000    0.58560   0.26380   0.33200   Biso      1.000     H          0.116837  
         H39       1.0000    0.41440   0.26380   0.16800   Biso      1.000     H          0.116837  
         H40       1.0000    0.36610   0.18430   0.27100   Biso      1.000     H          0.124385  
         H41       1.0000    0.22620   0.03640   0.21310   Biso      1.000     H          0.130044  
         H42       1.0000    0.35320   0.98350   0.07350   Biso      1.000     H          0.129029  
         H43       1.0000    0.85320   0.48350   0.07350   Biso      1.000     H          0.129029  
         H44       1.0000    0.72620   0.53640   0.21310   Biso      1.000     H          0.130044  
         H45       1.0000    0.99540   0.81560   0.12150   Biso      1.000     H          0.119754  
         H46       1.0000    0.03070   0.54450   0.05880   Biso      1.000     H          0.112872  
         H47       1.0000    0.91440   0.76380   0.16800   Biso      1.000     H          0.116837  
         H48       1.0000    0.44980   0.99180   0.10650   Biso      1.000     H          0.116489  
         H49       1.0000    0.55020   0.99180   0.39350   Biso      1.000     H          0.116489  
         H50       1.0000    0.64680   0.98350   0.42650   Biso      1.000     H          0.129029  
         H51       1.0000    0.99540   0.18440   0.62150   Biso      1.000     H          0.119754  
         H52       1.0000    0.63390   0.18430   0.22900   Biso      1.000     H          0.124385  
         H53       1.0000    0.86610   0.31570   0.77100   Biso      1.000     H          0.124385  
         H54       1.0000    0.94980   0.50820   0.60650   Biso      1.000     H          0.116489  
         H55       1.0000    0.03070   0.45550   0.55880   Biso      1.000     H          0.112873  
         H56       1.0000    0.91440   0.23620   0.66800   Biso      1.000     H          0.116837  
         O1        1.0000    0.19978   0.93471   0.06730   Biso      1.000     O          -0.591226           
         O2        1.0000    0.80180   0.27110   0.87587   Biso      1.000     O          -0.636154           
         O3        1.0000    0.69820   0.77110   0.62413   Biso      1.000     O          -0.636154           
         O4        1.0000    0.41669   0.30793   0.45230   Biso      1.000     O          -0.663502           
         O5        1.0000    0.40182   0.16061   0.49724   Biso      1.000     O          -0.648017           
         O6        1.0000    0.22584   0.35490   0.45673   Biso      1.000     O          -0.747243           
         O7        1.0000    0.30180   0.77110   0.87587   Biso      1.000     O          -0.636153           
         O8        1.0000    0.27671   0.64813   0.15046   Biso      1.000     O          -0.703773           
         O9        1.0000    0.30022   0.56529   0.93270   Biso      1.000     O          -0.591226           
         O10       1.0000    0.40182   0.83939   0.99724   Biso      1.000     O          -0.648017           
         O11       1.0000    0.69820   0.22890   0.12413   Biso      1.000     O          -0.636154           
         O12       1.0000    0.19820   0.27110   0.62413   Biso      1.000     O          -0.636154           
         O13       1.0000    0.22329   0.14813   0.34954   Biso      1.000     O          -0.703773           
         O14       1.0000    0.19978   0.06529   0.56730   Biso      1.000     O          -0.591226           
         O15       1.0000    0.41669   0.69207   0.95230   Biso      1.000     O          -0.663502           
         O16       1.0000    0.30022   0.43471   0.43270   Biso      1.000     O          -0.591226           
         O17       1.0000    0.27416   0.14510   0.54327   Biso      1.000     O          -0.747243           
         O18       1.0000    0.27671   0.35187   0.65046   Biso      1.000     O          -0.703773           
         O19       1.0000    0.09818   0.33939   0.50276   Biso      1.000     O          -0.648017           
         O20       1.0000    0.08331   0.19207   0.54770   Biso      1.000     O          -0.663502           
         O21       1.0000    0.30180   0.22890   0.37587   Biso      1.000     O          -0.636154           
         O22       1.0000    0.22584   0.64510   0.95673   Biso      1.000     O          -0.747243           
         O23       1.0000    0.72329   0.35187   0.84954   Biso      1.000     O          -0.703773           
         O24       1.0000    0.58331   0.30793   0.04770   Biso      1.000     O          -0.663502           
         O25       1.0000    0.77416   0.35490   0.04327   Biso      1.000     O          -0.747243           
         O26       1.0000    0.22329   0.85187   0.84954   Biso      1.000     O          -0.703773           
         O27       1.0000    0.19820   0.72890   0.12413   Biso      1.000     O          -0.636153           
         O28       1.0000    0.09818   0.66061   0.00276   Biso      1.000     O          -0.648017           
         O29       1.0000    0.08331   0.80793   0.04770   Biso      1.000     O          -0.663502           
         O30       1.0000    0.58331   0.69207   0.54770   Biso      1.000     O          -0.663502           
         O31       1.0000    0.91669   0.19207   0.95230   Biso      1.000     O          -0.663502           
         O32       1.0000    0.80180   0.72890   0.37587   Biso      1.000     O          -0.636154           
         O33       1.0000    0.77671   0.85187   0.65046   Biso      1.000     O          -0.703773           
         O34       1.0000    0.80022   0.93471   0.43270   Biso      1.000     O          -0.591226           
         O35       1.0000    0.72584   0.85490   0.45673   Biso      1.000     O          -0.747243           
         O36       1.0000    0.90182   0.66061   0.49724   Biso      1.000     O          -0.648017           
         O37       1.0000    0.59818   0.83939   0.50276   Biso      1.000     O          -0.648017           
         O38       1.0000    0.77416   0.64510   0.54327   Biso      1.000     O          -0.747243           
         O39       1.0000    0.69978   0.56529   0.56730   Biso      1.000     O          -0.591226           
         O40       1.0000    0.90182   0.33939   0.99724   Biso      1.000     O          -0.648017           
         O41       1.0000    0.72584   0.14510   0.95673   Biso      1.000     O          -0.747243           
         O42       1.0000    0.80022   0.06529   0.93270   Biso      1.000     O          -0.591226           
         O43       1.0000    0.72329   0.64813   0.34954   Biso      1.000     O          -0.703773           
         O44       1.0000    0.77671   0.14813   0.15046   Biso      1.000     O          -0.703773           
         O45       1.0000    0.27416   0.85490   0.04327   Biso      1.000     O          -0.747243           
         O46       1.0000    0.59818   0.16061   0.00276   Biso      1.000     O          -0.648017           
         O47       1.0000    0.69978   0.43471   0.06730   Biso      1.000     O          -0.591226           
         O48       1.0000    0.91669   0.80793   0.45230   Biso      1.000     O          -0.663502 