
##########################################################################
#               Crystallographic Information Format file
#               Produced by PyCifRW module
#
#  This is a CIF file.  CIF has been adopted by the International
#  Union of Crystallography as the standard for data archiving and
#  transmission.
#
#  For information on this file format, follow the CIF links at
#  http://www.iucr.org
##########################################################################

data_image0

_cell_length_a                          17.5311
_cell_length_b                          17.5311
_cell_length_c                          17.5311
_cell_angle_alpha                       62.6884
_cell_angle_beta                        62.6884
_cell_angle_gamma                       62.6884
_symmetry_space_group_name_H-M          'P 1'
_symmetry_int_tables_number             1
loop_
  _symmetry_equiv_pos_as_xyz
         'x, y, z' 
loop_
  _atom_site_label
  _atom_site_occupancy
  _atom_site_fract_x
  _atom_site_fract_y
  _atom_site_fract_z
  _atom_site_thermal_displace_type
  _atom_site_B_iso_or_equiv
  _atom_site_type_symbol
  _atom_site_charge
         C1        1.0000    0.47447   0.94007   0.80947   Biso      1.000     C          -0.131035           
         C2        1.0000    0.47447   0.80947   0.94007   Biso      1.000     C          -0.131034           
         C3        1.0000    0.52301   0.06091   0.33391   Biso      1.000     C          0.605004  
         C4        1.0000    0.52754   0.10494   0.23594   Biso      1.000     C          -0.012084           
         C5        1.0000    0.52553   0.05993   0.19053   Biso      1.000     C          -0.131031           
         C6        1.0000    0.06091   0.33391   0.52301   Biso      1.000     C          0.599328  
         C7        1.0000    0.10494   0.23594   0.52754   Biso      1.000     C          -0.004177           
         C8        1.0000    0.05993   0.19053   0.52553   Biso      1.000     C          -0.132282           
         C9        1.0000    0.33391   0.52301   0.06091   Biso      1.000     C          0.605086  
         C10       1.0000    0.23594   0.52754   0.10494   Biso      1.000     C          -0.011445           
         C11       1.0000    0.19053   0.52553   0.05993   Biso      1.000     C          -0.131025           
         C12       1.0000    0.06091   0.52301   0.33391   Biso      1.000     C          0.599328  
         C13       1.0000    0.10494   0.52754   0.23594   Biso      1.000     C          -0.004174           
         C14       1.0000    0.47246   0.76406   0.89506   Biso      1.000     C          -0.012077           
         C15       1.0000    0.05993   0.52553   0.19053   Biso      1.000     C          -0.132282           
         C16       1.0000    0.23594   0.10494   0.52754   Biso      1.000     C          -0.011451           
         C17       1.0000    0.19053   0.05993   0.52553   Biso      1.000     C          -0.131026           
         C18       1.0000    0.52301   0.33391   0.06091   Biso      1.000     C          0.605003  
         C19       1.0000    0.52754   0.23594   0.10494   Biso      1.000     C          -0.012081           
         C20       1.0000    0.52553   0.19053   0.05993   Biso      1.000     C          -0.131031           
         C21       1.0000    0.47699   0.93909   0.66609   Biso      1.000     C          0.605004  
         C22       1.0000    0.47246   0.89506   0.76406   Biso      1.000     C          -0.01208  
         C23       1.0000    0.80742   0.47192   0.80742   Biso      1.000     C          -0.109936           
         C24       1.0000    0.93909   0.66609   0.47699   Biso      1.000     C          0.599328  
         C25       1.0000    0.89506   0.76406   0.47246   Biso      1.000     C          -0.004177           
         C26       1.0000    0.94007   0.80947   0.47447   Biso      1.000     C          -0.132283           
         C27       1.0000    0.66609   0.47699   0.93909   Biso      1.000     C          0.605085  
         C28       1.0000    0.33391   0.06091   0.52301   Biso      1.000     C          0.605088  
         C29       1.0000    0.47699   0.66609   0.93909   Biso      1.000     C          0.605002  
         C30       1.0000    0.80947   0.94007   0.47447   Biso      1.000     C          -0.13103  
         C31       1.0000    0.76406   0.89506   0.47246   Biso      1.000     C          -0.011447           
         C32       1.0000    0.02110   0.50390   0.02110   Biso      1.000     C          -0.031972           
         C33       1.0000    0.05700   0.51670   0.05700   Biso      1.000     C          -0.074182           
         C34       1.0000    0.10110   0.52420   0.10110   Biso      1.000     C          0.13977   
         C35       1.0000    0.19258   0.52808   0.19258   Biso      1.000     C          -0.109923           
         C36       1.0000    0.02110   0.02110   0.50390   Biso      1.000     C          -0.031989           
         C37       1.0000    0.05700   0.05700   0.51670   Biso      1.000     C          -0.074188           
         C38       1.0000    0.10110   0.10110   0.52420   Biso      1.000     C          0.139767  
         C39       1.0000    0.19258   0.19258   0.52808   Biso      1.000     C          -0.109927           
         C40       1.0000    0.50390   0.02110   0.02110   Biso      1.000     C          -0.032365           
         C41       1.0000    0.51670   0.05700   0.05700   Biso      1.000     C          -0.07492  
         C42       1.0000    0.52420   0.10110   0.10110   Biso      1.000     C          0.139449  
         C43       1.0000    0.52808   0.19258   0.19258   Biso      1.000     C          -0.108593           
         C44       1.0000    0.49610   0.97890   0.97890   Biso      1.000     C          -0.032336           
         C45       1.0000    0.48330   0.94300   0.94300   Biso      1.000     C          -0.074927           
         C46       1.0000    0.47580   0.89890   0.89890   Biso      1.000     C          0.139451  
         C47       1.0000    0.47192   0.80742   0.80742   Biso      1.000     C          -0.108594           
         C48       1.0000    0.97890   0.97890   0.49610   Biso      1.000     C          -0.03196  
         C49       1.0000    0.94300   0.94300   0.48330   Biso      1.000     C          -0.074195           
         C50       1.0000    0.89890   0.89890   0.47580   Biso      1.000     C          0.139769  
         C51       1.0000    0.80742   0.80742   0.47192   Biso      1.000     C          -0.109927           
         C52       1.0000    0.97890   0.49610   0.97890   Biso      1.000     C          -0.031948           
         C53       1.0000    0.94300   0.48330   0.94300   Biso      1.000     C          -0.074188           
         C54       1.0000    0.89890   0.47580   0.89890   Biso      1.000     C          0.139771  
         C55       1.0000    0.93909   0.47699   0.66609   Biso      1.000     C          0.599327  
         C56       1.0000    0.89506   0.47246   0.76406   Biso      1.000     C          -0.004168           
         C57       1.0000    0.94007   0.47447   0.80947   Biso      1.000     C          -0.132283           
         C58       1.0000    0.66609   0.93909   0.47699   Biso      1.000     C          0.605088  
         C59       1.0000    0.76406   0.47246   0.89506   Biso      1.000     C          -0.011438           
         C60       1.0000    0.80947   0.47447   0.94007   Biso      1.000     C          -0.131026           
         Cu1       1.0000    0.92272   0.50064   0.50064   Biso      1.000     Cu          0.848256  
         Cu2       1.0000    0.50064   0.92272   0.50064   Biso      1.000     Cu          0.890924  
         Cu3       1.0000    0.50064   0.50064   0.92272   Biso      1.000     Cu          0.890959  
         Cu4       1.0000    0.49936   0.07728   0.49936   Biso      1.000     Cu          0.890947  
         Cu5       1.0000    0.07728   0.49936   0.49936   Biso      1.000     Cu          0.848256  
         Cu6       1.0000    0.49936   0.49936   0.07728   Biso      1.000     Cu          0.890958  
         H1        1.0000    0.22410   0.52870   0.22410   Biso      1.000     H          0.132122  
         H2        1.0000    0.00090   0.47500   0.77940   Biso      1.000     H          0.13143   
         H3        1.0000    0.47500   0.77940   0.00090   Biso      1.000     H          0.130717  
         H4        1.0000    0.52500   0.99910   0.22060   Biso      1.000     H          0.130706  
         H5        1.0000    0.99910   0.22060   0.52500   Biso      1.000     H          0.131425  
         H6        1.0000    0.22060   0.52500   0.99910   Biso      1.000     H          0.130801  
         H7        1.0000    0.77940   0.00090   0.47500   Biso      1.000     H          0.13079   
         H8        1.0000    0.22060   0.99910   0.52500   Biso      1.000     H          0.130787  
         H9        1.0000    0.99910   0.52500   0.22060   Biso      1.000     H          0.131431  
         H10       1.0000    0.52870   0.22410   0.22410   Biso      1.000     H          0.131438  
         H11       1.0000    0.47130   0.77590   0.77590   Biso      1.000     H          0.131435  
         H12       1.0000    0.77590   0.77590   0.47130   Biso      1.000     H          0.132118  
         H13       1.0000    0.77590   0.47130   0.77590   Biso      1.000     H          0.132124  
         H14       1.0000    0.22410   0.22410   0.52870   Biso      1.000     H          0.132119  
         H15       1.0000    0.00090   0.77940   0.47500   Biso      1.000     H          0.131427  
         H16       1.0000    0.47500   0.00090   0.77940   Biso      1.000     H          0.13071   
         H17       1.0000    0.52500   0.22060   0.99910   Biso      1.000     H          0.130715  
         H18       1.0000    0.77940   0.47500   0.00090   Biso      1.000     H          0.1308    
         O1        1.0000    0.98121   0.51946   0.37045   Biso      1.000     O          -0.520342           
         O2        1.0000    0.89188   0.62915   0.47816   Biso      1.000     O          -0.528768           
         O3        1.0000    0.01879   0.62955   0.48054   Biso      1.000     O          -0.520343           
         O4        1.0000    0.47816   0.89188   0.62915   Biso      1.000     O          -0.53732  
         O5        1.0000    0.48054   0.01879   0.62955   Biso      1.000     O          -0.527665           
         O6        1.0000    0.52184   0.37085   0.10812   Biso      1.000     O          -0.537328           
         O7        1.0000    0.51946   0.37045   0.98121   Biso      1.000     O          -0.527673           
         O8        1.0000    0.37085   0.10812   0.52184   Biso      1.000     O          -0.536958           
         O9        1.0000    0.37045   0.98121   0.51946   Biso      1.000     O          -0.527634           
         O10       1.0000    0.10812   0.52184   0.37085   Biso      1.000     O          -0.528767           
         O11       1.0000    0.37085   0.52184   0.10812   Biso      1.000     O          -0.536963           
         O12       1.0000    0.01879   0.48054   0.62955   Biso      1.000     O          -0.520342           
         O13       1.0000    0.10812   0.37085   0.52184   Biso      1.000     O          -0.528768           
         O14       1.0000    0.98121   0.37045   0.51946   Biso      1.000     O          -0.520343           
         O15       1.0000    0.52184   0.10812   0.37085   Biso      1.000     O          -0.537322           
         O16       1.0000    0.51946   0.98121   0.37045   Biso      1.000     O          -0.527663           
         O17       1.0000    0.47816   0.62915   0.89188   Biso      1.000     O          -0.537329           
         O18       1.0000    0.48054   0.62955   0.01879   Biso      1.000     O          -0.527671           
         O19       1.0000    0.62915   0.89188   0.47816   Biso      1.000     O          -0.536956           
         O20       1.0000    0.62955   0.01879   0.48054   Biso      1.000     O          -0.527636           
         O21       1.0000    0.89188   0.47816   0.62915   Biso      1.000     O          -0.528767           
         O22       1.0000    0.62955   0.48054   0.01879   Biso      1.000     O          -0.527642           
         O23       1.0000    0.37045   0.51946   0.98121   Biso      1.000     O          -0.527644           
         O24       1.0000    0.62915   0.47816   0.89188   Biso      1.000     O          -0.536964 