
##########################################################################
#               Crystallographic Information Format file
#               Produced by PyCifRW module
#
#  This is a CIF file.  CIF has been adopted by the International
#  Union of Crystallography as the standard for data archiving and
#  transmission.
#
#  For information on this file format, follow the CIF links at
#  http://www.iucr.org
##########################################################################

data_image0

_cell_length_a                          8.6313
_cell_length_b                          13.0527
_cell_length_c                          13.7646
_cell_angle_alpha                       118.303
_cell_angle_beta                        91.2969
_cell_angle_gamma                       90
_symmetry_space_group_name_H-M          'P 1'
_symmetry_int_tables_number             1
loop_
  _symmetry_equiv_pos_as_xyz
         'x, y, z' 
loop_
  _atom_site_label
  _atom_site_occupancy
  _atom_site_fract_x
  _atom_site_fract_y
  _atom_site_fract_z
  _atom_site_thermal_displace_type
  _atom_site_B_iso_or_equiv
  _atom_site_type_symbol
  _atom_site_charge
         C1        1.0000    0.75480   0.90070   0.71040   Biso      1.000     C          0.108351  
         C2        1.0000    0.74840   0.29549   0.19618   Biso      1.000     C          0.086083  
         C3        1.0000    0.63600   0.22496   0.12172   Biso      1.000     C          -0.22223600000000002          
         C4        1.0000    0.57620   0.13262   0.13144   Biso      1.000     C          0.176756  
         C5        1.0000    0.63180   0.11581   0.21782   Biso      1.000     C          -0.19839500000000002          
         C6        1.0000    0.74520   0.19030   0.28960   Biso      1.000     C          0.107483  
         C7        1.0000    0.24260   0.05977   0.59594   Biso      1.000     C          0.655265  
         C8        1.0000    0.08870   0.10834   0.64868   Biso      1.000     C          -0.328777           
         C9        1.0000    0.01530   0.18766   0.60732   Biso      1.000     C          -0.125407           
         C10       1.0000    0.45960   0.04928   0.04776   Biso      1.000     C          -0.22910100000000003          
         C11       1.0000    0.12000   0.29142   0.63224   Biso      1.000     C          -0.329223           
         C12       1.0000    0.04040   0.00152   0.95224   Biso      1.000     C          -0.23118200000000003          
         C13       1.0000    0.75160   0.09931   0.80382   Biso      1.000     C          0.086526  
         C14       1.0000    0.86400   0.10324   0.87828   Biso      1.000     C          -0.222002           
         C15       1.0000    0.92380   0.00118   0.86856   Biso      1.000     C          0.17818699999999998           
         C16       1.0000    0.86820   0.89799   0.78218   Biso      1.000     C          -0.199737           
         C17       1.0000    0.25740   0.46383   0.40406   Biso      1.000     C          0.655328  
         C18       1.0000    0.41130   0.45966   0.35132   Biso      1.000     C          -0.327599           
         C19       1.0000    0.48470   0.58034   0.39268   Biso      1.000     C          -0.127361           
         C20       1.0000    0.06740   0.36698   0.58236   Biso      1.000     C          0.658089  
         C21       1.0000    0.56740   0.21538   0.58236   Biso      1.000     C          0.657457  
         C22       1.0000    0.62000   0.34082   0.63224   Biso      1.000     C          -0.32705700000000004          
         C23       1.0000    0.51530   0.41966   0.60732   Biso      1.000     C          -0.127363           
         C24       1.0000    0.54040   0.95072   0.95224   Biso      1.000     C          -0.229098           
         C25       1.0000    0.25160   0.70451   0.80382   Biso      1.000     C          0.086083  
         C26       1.0000    0.36400   0.77504   0.87828   Biso      1.000     C          -0.222235           
         C27       1.0000    0.42380   0.86738   0.86856   Biso      1.000     C          0.176749  
         C28       1.0000    0.36820   0.88419   0.78218   Biso      1.000     C          -0.198408           
         C29       1.0000    0.25480   0.80970   0.71040   Biso      1.000     C          0.107474  
         C30       1.0000    0.75740   0.94023   0.40406   Biso      1.000     C          0.655265  
         C31       1.0000    0.91130   0.89166   0.35132   Biso      1.000     C          -0.328775           
         C32       1.0000    0.98470   0.81234   0.39268   Biso      1.000     C          -0.125407           
         C33       1.0000    0.88000   0.70858   0.36776   Biso      1.000     C          -0.32922399999999996          
         C34       1.0000    0.93260   0.63302   0.41764   Biso      1.000     C          0.658089  
         C35       1.0000    0.95960   0.99848   0.04776   Biso      1.000     C          -0.23118000000000002          
         C36       1.0000    0.24840   0.90069   0.19618   Biso      1.000     C          0.086528  
         C37       1.0000    0.13600   0.89676   0.12172   Biso      1.000     C          -0.221996           
         C38       1.0000    0.07620   0.99882   0.13144   Biso      1.000     C          0.17818399999999998           
         C39       1.0000    0.13180   0.10201   0.21782   Biso      1.000     C          -0.199749           
         C40       1.0000    0.24520   0.09930   0.28960   Biso      1.000     C          0.10834500000000001           
         C41       1.0000    0.74260   0.53617   0.59594   Biso      1.000     C          0.655329  
         C42       1.0000    0.58870   0.54034   0.64868   Biso      1.000     C          -0.32759499999999997          
         C43       1.0000    0.38000   0.65918   0.36776   Biso      1.000     C          -0.327058           
         C44       1.0000    0.43260   0.78462   0.41764   Biso      1.000     C          0.657458  
         Cu1       1.0000    0.55394   0.99905   0.58950   Biso      1.000     Cu          0.775885  
         Cu2       1.0000    0.94606   0.40955   0.41050   Biso      1.000     Cu          0.777306  
         Cu3       1.0000    0.44606   0.00095   0.41050   Biso      1.000     Cu          0.775841  
         Cu4       1.0000    0.05394   0.59045   0.58950   Biso      1.000     Cu          0.777229  
         H1        1.0000    0.89520   0.84710   0.27020   Biso      1.000     H          0.123971  
         H2        1.0000    0.59260   0.05370   0.22800   Biso      1.000     H          0.12973099999999999           
         H3        1.0000    0.78210   0.17780   0.34860   Biso      1.000     H          0.09968300000000001           
         H4        1.0000    0.10480   0.15290   0.72980   Biso      1.000     H          0.123975  
         H5        1.0000    0.01650   0.04300   0.63260   Biso      1.000     H          0.145171  
         H6        1.0000    0.99530   0.14270   0.52660   Biso      1.000     H          0.101355  
         H7        1.0000    0.91460   0.21580   0.64320   Biso      1.000     H          0.09940299999999999           
         H8        1.0000    0.12900   0.34050   0.71340   Biso      1.000     H          0.127431  
         H9        1.0000    0.98350   0.95700   0.36740   Biso      1.000     H          0.14517   
         H10       1.0000    0.10640   0.07240   0.98060   Biso      1.000     H          0.115409  
         H11       1.0000    0.10810   0.93300   0.91620   Biso      1.000     H          0.10558499999999998           
         H12       1.0000    0.90000   0.17600   0.93600   Biso      1.000     H          0.12485299999999999           
         H13       1.0000    0.60000   0.24000   0.06400   Biso      1.000     H          0.125747  
         H14       1.0000    0.90740   0.82570   0.77200   Biso      1.000     H          0.130134  
         H15       1.0000    0.71790   0.82920   0.65140   Biso      1.000     H          0.099027  
         H16       1.0000    0.39520   0.42310   0.27020   Biso      1.000     H          0.12391500000000001           
         H17       1.0000    0.48350   0.41040   0.36740   Biso      1.000     H          0.144816  
         H18       1.0000    0.50470   0.61610   0.47340   Biso      1.000     H          0.101961  
         H19       1.0000    0.58540   0.57260   0.35680   Biso      1.000     H          0.099605  
         H20       1.0000    0.37100   0.62710   0.28660   Biso      1.000     H          0.127298  
         H21       1.0000    0.27530   0.65700   0.39460   Biso      1.000     H          0.142316  
         H22       1.0000    0.71210   0.17070   0.81160   Biso      1.000     H          0.09341100000000001           
         H23       1.0000    0.78790   0.35910   0.18840   Biso      1.000     H          0.093333  
         H24       1.0000    0.22470   0.26240   0.60540   Biso      1.000     H          0.143286  
         H25       1.0000    0.39360   0.09180   0.01940   Biso      1.000     H          0.11436600000000001           
         H26       1.0000    0.21790   0.82220   0.65140   Biso      1.000     H          0.09967899999999999           
         H27       1.0000    0.40740   0.94630   0.77200   Biso      1.000     H          0.129725  
         H28       1.0000    0.39190   0.01680   0.08380   Biso      1.000     H          0.10517   
         H29       1.0000    0.21210   0.64090   0.81160   Biso      1.000     H          0.093322  
         H30       1.0000    0.60810   0.98320   0.91620   Biso      1.000     H          0.10516700000000001           
         H31       1.0000    0.60640   0.90820   0.98060   Biso      1.000     H          0.11436400000000001           
         H32       1.0000    0.00470   0.85730   0.47340   Biso      1.000     H          0.101355  
         H33       1.0000    0.08540   0.78420   0.35680   Biso      1.000     H          0.09940399999999999           
         H34       1.0000    0.87100   0.65950   0.28660   Biso      1.000     H          0.127429  
         H35       1.0000    0.77530   0.73760   0.39460   Biso      1.000     H          0.143287  
         H36       1.0000    0.89360   0.92760   0.01940   Biso      1.000     H          0.115407  
         H37       1.0000    0.40000   0.76000   0.93600   Biso      1.000     H          0.12573199999999998           
         H38       1.0000    0.89190   0.06700   0.08380   Biso      1.000     H          0.105581  
         H39       1.0000    0.62900   0.37290   0.71340   Biso      1.000     H          0.12729300000000002           
         H40       1.0000    0.41460   0.42740   0.64320   Biso      1.000     H          0.099606  
         H41       1.0000    0.49530   0.38390   0.52660   Biso      1.000     H          0.10195800000000001           
         H42       1.0000    0.51650   0.58960   0.63260   Biso      1.000     H          0.144815  
         H43       1.0000    0.72470   0.34300   0.60540   Biso      1.000     H          0.142315  
         H44       1.0000    0.28210   0.17080   0.34860   Biso      1.000     H          0.099026  
         H45       1.0000    0.09260   0.17430   0.22800   Biso      1.000     H          0.130129  
         H46       1.0000    0.10000   0.82400   0.06400   Biso      1.000     H          0.12484100000000001           
         H47       1.0000    0.28790   0.82930   0.18840   Biso      1.000     H          0.093405  
         H48       1.0000    0.60480   0.57690   0.72980   Biso      1.000     H          0.12390899999999999           
         N1        1.0000    0.69550   0.99986   0.72098   Biso      1.000     N          -0.250262           
         N2        1.0000    0.80450   0.27888   0.27902   Biso      1.000     N          -0.25045700000000004          
         N3        1.0000    0.30450   0.00014   0.27902   Biso      1.000     N          -0.250254           
         N4        1.0000    0.19550   0.72112   0.72098   Biso      1.000     N          -0.250445           
         O1        1.0000    0.50730   0.16692   0.48664   Biso      1.000     O          -0.5396810000000001           
         O2        1.0000    0.90840   0.52557   0.36028   Biso      1.000     O          -0.55776  
         O3        1.0000    0.99270   0.68028   0.51336   Biso      1.000     O          -0.5397029999999999           
         O4        1.0000    0.75710   0.45916   0.49910   Biso      1.000     O          -0.53677  
         O5        1.0000    0.84640   0.60999   0.65322   Biso      1.000     O          -0.551813           
         O6        1.0000    0.59160   0.16529   0.63972   Biso      1.000     O          -0.5570609999999999           
         O7        1.0000    0.25710   0.03994   0.49910   Biso      1.000     O          -0.536173           
         O8        1.0000    0.49270   0.83308   0.51336   Biso      1.000     O          -0.539667           
         O9        1.0000    0.09160   0.47443   0.63972   Biso      1.000     O          -0.557774           
         O10       1.0000    0.00730   0.31972   0.48664   Biso      1.000     O          -0.53969  
         O11       1.0000    0.24290   0.54084   0.50090   Biso      1.000     O          -0.536773           
         O12       1.0000    0.15360   0.39001   0.34678   Biso      1.000     O          -0.551794           
         O13       1.0000    0.40840   0.83471   0.36028   Biso      1.000     O          -0.557074           
         O14       1.0000    0.65360   0.95677   0.34678   Biso      1.000     O          -0.551851           
         O15       1.0000    0.34640   0.04323   0.65322   Biso      1.000     O          -0.551834           
         O16       1.0000    0.74290   0.96006   0.50090   Biso      1.000     O          -0.5361670000000001 