
##########################################################################
#               Crystallographic Information Format file
#               Produced by PyCifRW module
#
#  This is a CIF file.  CIF has been adopted by the International
#  Union of Crystallography as the standard for data archiving and
#  transmission.
#
#  For information on this file format, follow the CIF links at
#  http://www.iucr.org
##########################################################################

data_image0

_cell_length_a                          9.059
_cell_length_b                          11.784
_cell_length_c                          13.3896
_cell_angle_alpha                       116.107
_cell_angle_beta                        90.9375
_cell_angle_gamma                       90
_symmetry_space_group_name_H-M          'P 1'
_symmetry_int_tables_number             1
loop_
  _symmetry_equiv_pos_as_xyz
         'x, y, z' 
loop_
  _atom_site_label
  _atom_site_occupancy
  _atom_site_fract_x
  _atom_site_fract_y
  _atom_site_fract_z
  _atom_site_thermal_displace_type
  _atom_site_B_iso_or_equiv
  _atom_site_type_symbol
  _atom_site_charge
         C1        1.0000    0.78660   0.92030   0.71140   Biso      1.000     C          0.10455   
         C2        1.0000    0.73480   0.32560   0.19340   Biso      1.000     C          0.09101000000000001           
         C3        1.0000    0.63320   0.25170   0.11520   Biso      1.000     C          -0.2225   
         C4        1.0000    0.57230   0.14960   0.12200   Biso      1.000     C          0.17519   
         C5        1.0000    0.61250   0.12960   0.21380   Biso      1.000     C          -0.204516           
         C6        1.0000    0.71340   0.20890   0.28860   Biso      1.000     C          0.10505999999999999           
         C7        1.0000    0.27530   0.05140   0.61920   Biso      1.000     C          0.670561  
         C8        1.0000    0.14030   0.10180   0.68760   Biso      1.000     C          -0.334144           
         C9        1.0000    0.09840   0.22720   0.68680   Biso      1.000     C          -0.120368           
         C10       1.0000    0.46370   0.06320   0.03740   Biso      1.000     C          -0.23080100000000003          
         C11       1.0000    0.02380   0.21080   0.57960   Biso      1.000     C          -0.34106  
         C12       1.0000    0.03630   0.02580   0.96260   Biso      1.000     C          -0.230994           
         C13       1.0000    0.76520   0.13220   0.80660   Biso      1.000     C          0.089674  
         C14       1.0000    0.86680   0.13650   0.88480   Biso      1.000     C          -0.22152  
         C15       1.0000    0.92770   0.02760   0.87800   Biso      1.000     C          0.175016  
         C16       1.0000    0.88750   0.91580   0.78620   Biso      1.000     C          -0.204431           
         C17       1.0000    0.22470   0.43220   0.38080   Biso      1.000     C          0.669144  
         C18       1.0000    0.35970   0.41420   0.31240   Biso      1.000     C          -0.333048           
         C19       1.0000    0.40160   0.54040   0.31320   Biso      1.000     C          -0.12016800000000001          
         C20       1.0000    0.02040   0.32430   0.55820   Biso      1.000     C          0.672996  
         C21       1.0000    0.52040   0.23390   0.55820   Biso      1.000     C          0.673017  
         C22       1.0000    0.52380   0.36880   0.57960   Biso      1.000     C          -0.341994           
         C23       1.0000    0.59840   0.45960   0.68680   Biso      1.000     C          -0.12016900000000001          
         C24       1.0000    0.53630   0.93680   0.96260   Biso      1.000     C          -0.230803           
         C25       1.0000    0.26520   0.67440   0.80660   Biso      1.000     C          0.091013  
         C26       1.0000    0.36680   0.74830   0.88480   Biso      1.000     C          -0.22249699999999997          
         C27       1.0000    0.42770   0.85040   0.87800   Biso      1.000     C          0.17519200000000001           
         C28       1.0000    0.38750   0.87040   0.78620   Biso      1.000     C          -0.204519           
         C29       1.0000    0.28660   0.79110   0.71140   Biso      1.000     C          0.10505899999999999           
         C30       1.0000    0.72470   0.94860   0.38080   Biso      1.000     C          0.670562  
         C31       1.0000    0.85970   0.89820   0.31240   Biso      1.000     C          -0.33414299999999997          
         C32       1.0000    0.90160   0.77280   0.31320   Biso      1.000     C          -0.120369           
         C33       1.0000    0.97620   0.78920   0.42040   Biso      1.000     C          -0.341059           
         C34       1.0000    0.97960   0.67570   0.44180   Biso      1.000     C          0.672996  
         C35       1.0000    0.96370   0.97420   0.03740   Biso      1.000     C          -0.230992           
         C36       1.0000    0.23480   0.86780   0.19340   Biso      1.000     C          0.089664  
         C37       1.0000    0.13320   0.86350   0.11520   Biso      1.000     C          -0.221529           
         C38       1.0000    0.07230   0.97240   0.12200   Biso      1.000     C          0.175008  
         C39       1.0000    0.11250   0.08420   0.21380   Biso      1.000     C          -0.204448           
         C40       1.0000    0.21340   0.07970   0.28860   Biso      1.000     C          0.10455199999999999           
         C41       1.0000    0.77530   0.56780   0.61920   Biso      1.000     C          0.669144  
         C42       1.0000    0.64030   0.58580   0.68760   Biso      1.000     C          -0.333049           
         C43       1.0000    0.47620   0.63120   0.42040   Biso      1.000     C          -0.341994           
         C44       1.0000    0.47960   0.76610   0.44180   Biso      1.000     C          0.673017  
         Cu1       1.0000    0.58031   0.02108   0.58800   Biso      1.000     Cu          0.778728  
         Cu2       1.0000    0.91969   0.43308   0.41200   Biso      1.000     Cu          0.779043  
         Cu3       1.0000    0.41969   0.97892   0.41200   Biso      1.000     Cu          0.77864   
         Cu4       1.0000    0.08031   0.56692   0.58800   Biso      1.000     Cu          0.77904   
         H1        1.0000    0.83980   0.88500   0.23500   Biso      1.000     H          0.122278  
         H2        1.0000    0.57020   0.06190   0.22420   Biso      1.000     H          0.134177  
         H3        1.0000    0.74240   0.19250   0.34960   Biso      1.000     H          0.095794  
         H4        1.0000    0.16020   0.11500   0.76500   Biso      1.000     H          0.122273  
         H5        1.0000    0.05790   0.04030   0.65640   Biso      1.000     H          0.136467  
         H6        1.0000    0.03140   0.27360   0.74920   Biso      1.000     H          0.088848  
         H7        1.0000    0.18870   0.27930   0.69900   Biso      1.000     H          0.097789  
         H8        1.0000    0.07450   0.14230   0.51700   Biso      1.000     H          0.14653   
         H9        1.0000    0.94210   0.95970   0.34360   Biso      1.000     H          0.136467  
         H10       1.0000    0.07380   0.11260   0.00900   Biso      1.000     H          0.115069  
         H11       1.0000    0.12120   0.97230   0.92460   Biso      1.000     H          0.11418800000000001           
         H12       1.0000    0.89510   0.21540   0.94380   Biso      1.000     H          0.12293299999999999           
         H13       1.0000    0.60490   0.27160   0.05620   Biso      1.000     H          0.123528  
         H14       1.0000    0.92980   0.83770   0.77580   Biso      1.000     H          0.134394  
         H15       1.0000    0.75760   0.84290   0.65040   Biso      1.000     H          0.095592  
         H16       1.0000    0.33980   0.35000   0.23500   Biso      1.000     H          0.121866  
         H17       1.0000    0.44210   0.38390   0.34360   Biso      1.000     H          0.136152  
         H18       1.0000    0.46860   0.52440   0.25080   Biso      1.000     H          0.089352  
         H19       1.0000    0.31130   0.58030   0.30100   Biso      1.000     H          0.097357  
         H20       1.0000    0.42550   0.62530   0.48300   Biso      1.000     H          0.146241  
         H21       1.0000    0.57920   0.60320   0.42080   Biso      1.000     H          0.145576  
         H22       1.0000    0.71980   0.20880   0.81560   Biso      1.000     H          0.092696  
         H23       1.0000    0.78020   0.39320   0.18440   Biso      1.000     H          0.092513  
         H24       1.0000    0.92080   0.18240   0.57920   Biso      1.000     H          0.145083  
         H25       1.0000    0.42620   0.10360   0.99100   Biso      1.000     H          0.115416  
         H26       1.0000    0.25760   0.80750   0.65040   Biso      1.000     H          0.095795  
         H27       1.0000    0.42980   0.93810   0.77580   Biso      1.000     H          0.134177  
         H28       1.0000    0.37880   0.04770   0.07540   Biso      1.000     H          0.11355599999999999           
         H29       1.0000    0.21980   0.60680   0.81560   Biso      1.000     H          0.092514  
         H30       1.0000    0.62120   0.95230   0.92460   Biso      1.000     H          0.11355499999999999           
         H31       1.0000    0.57380   0.89640   0.00900   Biso      1.000     H          0.11542000000000001           
         H32       1.0000    0.96860   0.72640   0.25080   Biso      1.000     H          0.088854  
         H33       1.0000    0.81130   0.72070   0.30100   Biso      1.000     H          0.09779   
         H34       1.0000    0.92550   0.85770   0.48300   Biso      1.000     H          0.146529  
         H35       1.0000    0.07920   0.81760   0.42080   Biso      1.000     H          0.145084  
         H36       1.0000    0.92620   0.88740   0.99100   Biso      1.000     H          0.115069  
         H37       1.0000    0.39510   0.72840   0.94380   Biso      1.000     H          0.12353399999999999           
         H38       1.0000    0.87880   0.02770   0.07540   Biso      1.000     H          0.114186  
         H39       1.0000    0.57450   0.37470   0.51700   Biso      1.000     H          0.146242  
         H40       1.0000    0.68870   0.41970   0.69900   Biso      1.000     H          0.097357  
         H41       1.0000    0.53140   0.47560   0.74920   Biso      1.000     H          0.08935   
         H42       1.0000    0.55790   0.61610   0.65640   Biso      1.000     H          0.136153  
         H43       1.0000    0.42080   0.39680   0.57920   Biso      1.000     H          0.145577  
         H44       1.0000    0.24240   0.15710   0.34960   Biso      1.000     H          0.095584  
         H45       1.0000    0.07020   0.16230   0.22420   Biso      1.000     H          0.134388  
         H46       1.0000    0.10490   0.78460   0.05620   Biso      1.000     H          0.122929  
         H47       1.0000    0.28020   0.79120   0.18440   Biso      1.000     H          0.092689  
         H48       1.0000    0.66020   0.65000   0.76500   Biso      1.000     H          0.121867  
         N1        1.0000    0.72680   0.02550   0.71840   Biso      1.000     N          -0.24173499999999998          
         N2        1.0000    0.77320   0.30710   0.28160   Biso      1.000     N          -0.24343499999999998          
         N3        1.0000    0.27320   0.97450   0.28160   Biso      1.000     N          -0.24173000000000003          
         N4        1.0000    0.22680   0.69290   0.71840   Biso      1.000     N          -0.24343299999999998          
         O1        1.0000    0.45100   0.16140   0.47140   Biso      1.000     O          -0.570239           
         O2        1.0000    0.91260   0.57826   0.37812   Biso      1.000     O          -0.529806           
         O3        1.0000    0.04900   0.69000   0.52860   Biso      1.000     O          -0.570545           
         O4        1.0000    0.75980   0.50718   0.51716   Biso      1.000     O          -0.545288           
         O5        1.0000    0.89450   0.61240   0.66940   Biso      1.000     O          -0.562369           
         O6        1.0000    0.58740   0.20014   0.62188   Biso      1.000     O          -0.5297930000000001           
         O7        1.0000    0.25980   0.00998   0.51716   Biso      1.000     O          -0.545956           
         O8        1.0000    0.54900   0.83860   0.52860   Biso      1.000     O          -0.57024  
         O9        1.0000    0.08740   0.42174   0.62188   Biso      1.000     O          -0.529809           
         O10       1.0000    0.95100   0.31000   0.47140   Biso      1.000     O          -0.570541           
         O11       1.0000    0.24020   0.49282   0.48284   Biso      1.000     O          -0.545289           
         O12       1.0000    0.10550   0.38760   0.33060   Biso      1.000     O          -0.5623640000000001           
         O13       1.0000    0.41260   0.79986   0.37812   Biso      1.000     O          -0.5297930000000001           
         O14       1.0000    0.60550   0.94300   0.33060   Biso      1.000     O          -0.562607           
         O15       1.0000    0.39450   0.05700   0.66940   Biso      1.000     O          -0.562608           
         O16       1.0000    0.74020   0.99002   0.48284   Biso      1.000     O          -0.545959 