
##########################################################################
#               Crystallographic Information Format file
#               Produced by PyCifRW module
#
#  This is a CIF file.  CIF has been adopted by the International
#  Union of Crystallography as the standard for data archiving and
#  transmission.
#
#  For information on this file format, follow the CIF links at
#  http://www.iucr.org
##########################################################################

data_image0

_cell_length_a                          7.201
_cell_length_b                          12.4
_cell_length_c                          20.784
_cell_angle_alpha                       90
_cell_angle_beta                        90
_cell_angle_gamma                       90
_symmetry_space_group_name_H-M          'P 1'
_symmetry_int_tables_number             1
loop_
  _symmetry_equiv_pos_as_xyz
         'x, y, z' 
loop_
  _atom_site_label
  _atom_site_occupancy
  _atom_site_fract_x
  _atom_site_fract_y
  _atom_site_fract_z
  _atom_site_thermal_displace_type
  _atom_site_B_iso_or_equiv
  _atom_site_type_symbol
  _atom_site_charge
         C1        1.0000    0.30940   0.04250   0.05920   Biso      1.000     C          -0.152921           
         C2        1.0000    0.68030   0.51570   0.61360   Biso      1.000     C          -0.298324           
         C3        1.0000    0.74960   0.45690   0.55480   Biso      1.000     C          0.12800699999999998           
         C4        1.0000    0.72700   0.50240   0.49460   Biso      1.000     C          -0.14871600000000001          
         C5        1.0000    0.80940   0.45750   0.44080   Biso      1.000     C          -0.152921           
         C6        1.0000    0.92100   0.36610   0.44630   Biso      1.000     C          0.13754   
         C7        1.0000    0.93520   0.31610   0.50610   Biso      1.000     C          -0.158853           
         C8        1.0000    0.84810   0.36020   0.55980   Biso      1.000     C          -0.16086199999999998          
         C9        1.0000    0.53080   0.17630   0.38930   Biso      1.000     C          -0.288655           
         C10       1.0000    0.81970   0.01570   0.38640   Biso      1.000     C          -0.298323           
         C11       1.0000    0.75040   0.95690   0.44520   Biso      1.000     C          0.12800699999999998           
         C12       1.0000    0.77300   0.00240   0.50540   Biso      1.000     C          -0.14871600000000001          
         C13       1.0000    0.69060   0.95750   0.55920   Biso      1.000     C          -0.152922           
         C14       1.0000    0.57900   0.86610   0.55370   Biso      1.000     C          0.13754   
         C15       1.0000    0.96920   0.67630   0.61070   Biso      1.000     C          -0.28865599999999997          
         C16       1.0000    0.56480   0.81610   0.49390   Biso      1.000     C          -0.158853           
         C17       1.0000    0.03080   0.32370   0.11070   Biso      1.000     C          -0.288657           
         C18       1.0000    0.31970   0.48430   0.11360   Biso      1.000     C          -0.298324           
         C19       1.0000    0.25040   0.54310   0.05480   Biso      1.000     C          0.12800699999999998           
         C20       1.0000    0.27300   0.49760   0.99460   Biso      1.000     C          -0.14871600000000001          
         C21       1.0000    0.19060   0.54250   0.94080   Biso      1.000     C          -0.152921           
         C22       1.0000    0.07900   0.63390   0.94630   Biso      1.000     C          0.13754   
         C23       1.0000    0.06480   0.68390   0.00610   Biso      1.000     C          -0.158853           
         C24       1.0000    0.15190   0.63980   0.05980   Biso      1.000     C          -0.16086099999999998          
         C25       1.0000    0.46920   0.82370   0.88930   Biso      1.000     C          -0.28865799999999997          
         C26       1.0000    0.18030   0.98430   0.88640   Biso      1.000     C          -0.29832600000000004          
         C27       1.0000    0.24960   0.04310   0.94520   Biso      1.000     C          0.12800699999999998           
         C28       1.0000    0.22700   0.99760   0.00540   Biso      1.000     C          -0.148715           
         C29       1.0000    0.42100   0.13390   0.05370   Biso      1.000     C          0.13754   
         C30       1.0000    0.65190   0.86020   0.44020   Biso      1.000     C          -0.16086099999999998          
         C31       1.0000    0.65190   0.86020   0.05980   Biso      1.000     C          -0.16086199999999998          
         C32       1.0000    0.56480   0.81610   0.00610   Biso      1.000     C          -0.158853           
         C33       1.0000    0.57900   0.86610   0.94630   Biso      1.000     C          0.13754   
         C34       1.0000    0.03080   0.32370   0.38930   Biso      1.000     C          -0.28865599999999997          
         C35       1.0000    0.31970   0.48430   0.38640   Biso      1.000     C          -0.298324           
         C36       1.0000    0.25040   0.54310   0.44520   Biso      1.000     C          0.12800699999999998           
         C37       1.0000    0.27300   0.49760   0.50540   Biso      1.000     C          -0.14871600000000001          
         C38       1.0000    0.19060   0.54250   0.55920   Biso      1.000     C          -0.152922           
         C39       1.0000    0.07900   0.63390   0.55370   Biso      1.000     C          0.13754   
         C40       1.0000    0.06480   0.68390   0.49390   Biso      1.000     C          -0.158853           
         C41       1.0000    0.15190   0.63980   0.44020   Biso      1.000     C          -0.16086199999999998          
         C42       1.0000    0.46920   0.82370   0.61070   Biso      1.000     C          -0.288657           
         C43       1.0000    0.18030   0.98430   0.61360   Biso      1.000     C          -0.298325           
         C44       1.0000    0.24960   0.04310   0.55480   Biso      1.000     C          0.12800699999999998           
         C45       1.0000    0.22700   0.99760   0.49460   Biso      1.000     C          -0.14871600000000001          
         C46       1.0000    0.30940   0.04250   0.44080   Biso      1.000     C          -0.152921           
         C47       1.0000    0.42100   0.13390   0.44630   Biso      1.000     C          0.13753900000000002           
         C48       1.0000    0.43520   0.18390   0.50610   Biso      1.000     C          -0.158853           
         C49       1.0000    0.34810   0.13980   0.55980   Biso      1.000     C          -0.160863           
         C50       1.0000    0.96920   0.67630   0.88930   Biso      1.000     C          -0.288657           
         C51       1.0000    0.68030   0.51570   0.88640   Biso      1.000     C          -0.298324           
         C52       1.0000    0.74960   0.45690   0.94520   Biso      1.000     C          0.12800699999999998           
         C53       1.0000    0.72700   0.50240   0.00540   Biso      1.000     C          -0.14871600000000001          
         C54       1.0000    0.80940   0.45750   0.05920   Biso      1.000     C          -0.152921           
         C55       1.0000    0.92100   0.36610   0.05370   Biso      1.000     C          0.13754   
         C56       1.0000    0.93520   0.31610   0.99390   Biso      1.000     C          -0.158853           
         C57       1.0000    0.84810   0.36020   0.94020   Biso      1.000     C          -0.16086099999999998          
         C58       1.0000    0.53080   0.17630   0.11070   Biso      1.000     C          -0.28865599999999997          
         C59       1.0000    0.81970   0.01570   0.11360   Biso      1.000     C          -0.298323           
         C60       1.0000    0.75040   0.95690   0.05480   Biso      1.000     C          0.12800699999999998           
         C61       1.0000    0.77300   0.00240   0.99460   Biso      1.000     C          -0.148715           
         C62       1.0000    0.69060   0.95750   0.94080   Biso      1.000     C          -0.152921           
         C63       1.0000    0.43520   0.18390   0.99390   Biso      1.000     C          -0.158853           
         C64       1.0000    0.34810   0.13980   0.94020   Biso      1.000     C          -0.16086199999999998          
         Cu1       1.0000    0.23648   0.83781   0.75000   Biso      1.000     Cu          0.053639  
         Cu2       1.0000    0.26352   0.33781   0.25000   Biso      1.000     Cu          0.05363   
         Cu3       1.0000    0.76352   0.16219   0.25000   Biso      1.000     Cu          0.05363300000000001           
         Cu4       1.0000    0.73648   0.66219   0.75000   Biso      1.000     Cu          0.053622  
         H1        1.0000    0.38770   0.53350   0.36050   Biso      1.000     H          0.153497  
         H2        1.0000    0.64430   0.82430   0.39990   Biso      1.000     H          0.11558199999999999           
         H3        1.0000    0.49510   0.75140   0.48970   Biso      1.000     H          0.108377  
         H4        1.0000    0.71030   0.98920   0.60030   Biso      1.000     H          0.106188  
         H5        1.0000    0.84640   0.06560   0.50990   Biso      1.000     H          0.107829  
         H6        1.0000    0.89900   0.07260   0.39980   Biso      1.000     H          0.138932  
         H7        1.0000    0.88770   0.96650   0.36050   Biso      1.000     H          0.153496  
         H8        1.0000    0.45000   0.21920   0.36380   Biso      1.000     H          0.14013   
         H9        1.0000    0.95000   0.28080   0.13620   Biso      1.000     H          0.14013   
         H10       1.0000    0.39900   0.42740   0.39980   Biso      1.000     H          0.138933  
         H11       1.0000    0.00490   0.25140   0.51030   Biso      1.000     H          0.108377  
         H12       1.0000    0.78970   0.48920   0.39970   Biso      1.000     H          0.106188  
         H13       1.0000    0.65360   0.56560   0.49010   Biso      1.000     H          0.107829  
         H14       1.0000    0.62890   0.21990   0.40540   Biso      1.000     H          0.137769  
         H15       1.0000    0.12890   0.28010   0.09460   Biso      1.000     H          0.137769  
         H16       1.0000    0.39900   0.42740   0.10020   Biso      1.000     H          0.138933  
         H17       1.0000    0.60100   0.57260   0.60020   Biso      1.000     H          0.138933  
         H18       1.0000    0.34640   0.43440   0.99010   Biso      1.000     H          0.107829  
         H19       1.0000    0.21030   0.51080   0.89970   Biso      1.000     H          0.106188  
         H20       1.0000    0.99510   0.74860   0.01030   Biso      1.000     H          0.108377  
         H21       1.0000    0.14430   0.67570   0.10010   Biso      1.000     H          0.11558299999999999           
         H22       1.0000    0.55000   0.78080   0.86380   Biso      1.000     H          0.140131  
         H23       1.0000    0.37110   0.78010   0.90540   Biso      1.000     H          0.137769  
         H24       1.0000    0.11230   0.03350   0.86050   Biso      1.000     H          0.153496  
         H25       1.0000    0.10100   0.92740   0.89980   Biso      1.000     H          0.138933  
         H26       1.0000    0.15360   0.93440   0.00990   Biso      1.000     H          0.107829  
         H27       1.0000    0.28970   0.01080   0.10030   Biso      1.000     H          0.106189  
         H28       1.0000    0.50490   0.24860   0.98970   Biso      1.000     H          0.108377  
         H29       1.0000    0.35570   0.17570   0.89990   Biso      1.000     H          0.11558299999999999           
         H30       1.0000    0.38770   0.53350   0.13950   Biso      1.000     H          0.153496  
         H31       1.0000    0.61230   0.46650   0.63950   Biso      1.000     H          0.153496  
         H32       1.0000    0.85570   0.32430   0.60010   Biso      1.000     H          0.11558199999999999           
         H33       1.0000    0.05000   0.71920   0.63620   Biso      1.000     H          0.14013   
         H34       1.0000    0.12890   0.28010   0.40540   Biso      1.000     H          0.137769  
         H35       1.0000    0.95000   0.28080   0.36380   Biso      1.000     H          0.14013   
         H36       1.0000    0.34640   0.43440   0.50990   Biso      1.000     H          0.107829  
         H37       1.0000    0.21030   0.51080   0.60030   Biso      1.000     H          0.106188  
         H38       1.0000    0.99510   0.74860   0.48970   Biso      1.000     H          0.108377  
         H39       1.0000    0.14430   0.67570   0.39990   Biso      1.000     H          0.11558299999999999           
         H40       1.0000    0.55000   0.78080   0.63620   Biso      1.000     H          0.14013   
         H41       1.0000    0.37110   0.78010   0.59460   Biso      1.000     H          0.137769  
         H42       1.0000    0.11230   0.03350   0.63950   Biso      1.000     H          0.153496  
         H43       1.0000    0.87110   0.71990   0.59460   Biso      1.000     H          0.137769  
         H44       1.0000    0.15360   0.93440   0.49010   Biso      1.000     H          0.107829  
         H45       1.0000    0.28970   0.01080   0.39970   Biso      1.000     H          0.106189  
         H46       1.0000    0.50490   0.24860   0.51030   Biso      1.000     H          0.108377  
         H47       1.0000    0.35570   0.17570   0.60010   Biso      1.000     H          0.11558299999999999           
         H48       1.0000    0.05000   0.71920   0.86380   Biso      1.000     H          0.14013   
         H49       1.0000    0.10100   0.92740   0.60020   Biso      1.000     H          0.138933  
         H50       1.0000    0.61230   0.46650   0.86050   Biso      1.000     H          0.153496  
         H51       1.0000    0.64430   0.82430   0.10010   Biso      1.000     H          0.11558299999999999           
         H52       1.0000    0.87110   0.71990   0.90540   Biso      1.000     H          0.137769  
         H53       1.0000    0.71030   0.98920   0.89970   Biso      1.000     H          0.106188  
         H54       1.0000    0.84640   0.06560   0.99010   Biso      1.000     H          0.107829  
         H55       1.0000    0.89900   0.07260   0.10020   Biso      1.000     H          0.138933  
         H56       1.0000    0.88770   0.96650   0.13950   Biso      1.000     H          0.153496  
         H57       1.0000    0.49510   0.75140   0.01030   Biso      1.000     H          0.108377  
         H58       1.0000    0.45000   0.21920   0.13620   Biso      1.000     H          0.14013   
         H59       1.0000    0.85570   0.32430   0.89990   Biso      1.000     H          0.11558299999999999           
         H60       1.0000    0.00490   0.25140   0.98970   Biso      1.000     H          0.108377  
         H61       1.0000    0.78970   0.48920   0.10030   Biso      1.000     H          0.106188  
         H62       1.0000    0.65360   0.56560   0.00990   Biso      1.000     H          0.107829  
         H63       1.0000    0.60100   0.57260   0.89980   Biso      1.000     H          0.138933  
         H64       1.0000    0.62890   0.21990   0.09460   Biso      1.000     H          0.137769  
         I1        1.0000    0.62819   0.35935   0.25000   Biso      1.000     I          -0.36048  
         I2        1.0000    0.87181   0.85935   0.75000   Biso      1.000     I          -0.36047399999999996          
         I3        1.0000    0.37181   0.64065   0.75000   Biso      1.000     I          -0.360475           
         I4        1.0000    0.12819   0.14065   0.25000   Biso      1.000     I          -0.360479           
         S1        1.0000    0.86830   0.57298   0.66211   Biso      1.000     S          0.087906  
         S2        1.0000    0.63170   0.07298   0.16211   Biso      1.000     S          0.087902  
         S3        1.0000    0.86830   0.57298   0.83789   Biso      1.000     S          0.087906  
         S4        1.0000    0.36830   0.92702   0.66211   Biso      1.000     S          0.087903  
         S5        1.0000    0.13170   0.42702   0.33789   Biso      1.000     S          0.087904  
         S6        1.0000    0.36830   0.92702   0.83789   Biso      1.000     S          0.087903  
         S7        1.0000    0.13170   0.42702   0.16211   Biso      1.000     S          0.087904  
         S8        1.0000    0.63170   0.07298   0.33789   Biso      1.000     S          0.08790099999999999 