
##########################################################################
#               Crystallographic Information Format file
#               Produced by PyCifRW module
#
#  This is a CIF file.  CIF has been adopted by the International
#  Union of Crystallography as the standard for data archiving and
#  transmission.
#
#  For information on this file format, follow the CIF links at
#  http://www.iucr.org
##########################################################################

data_image0

_cell_length_a                          9.1743
_cell_length_b                          10.8488
_cell_length_c                          11.3458
_cell_angle_alpha                       113.479
_cell_angle_beta                        98.726
_cell_angle_gamma                       98.016
_symmetry_space_group_name_H-M          'P 1'
_symmetry_int_tables_number             1
loop_
  _symmetry_equiv_pos_as_xyz
         'x, y, z' 
loop_
  _atom_site_label
  _atom_site_occupancy
  _atom_site_fract_x
  _atom_site_fract_y
  _atom_site_fract_z
  _atom_site_thermal_displace_type
  _atom_site_B_iso_or_equiv
  _atom_site_type_symbol
  _atom_site_charge
         C1        1.0000    0.21770   0.30400   0.27280   Biso      1.000     C          -0.034373           
         C2        1.0000    0.42780   0.10710   0.51280   Biso      1.000     C          -0.10528299999999999          
         C3        1.0000    0.37890   0.78330   0.56740   Biso      1.000     C          0.600388  
         C4        1.0000    0.93330   0.71970   0.75040   Biso      1.000     C          -0.038812           
         C5        1.0000    0.39220   0.52920   0.76140   Biso      1.000     C          0.5968479999999999  
         C6        1.0000    0.63210   0.99630   0.45410   Biso      1.000     C          -0.11115499999999999          
         C7        1.0000    0.55300   0.48550   0.11440   Biso      1.000     C          -0.023514           
         C8        1.0000    0.55770   0.10470   0.46730   Biso      1.000     C          -0.022712           
         C9        1.0000    0.39280   0.57770   0.99830   Biso      1.000     C          -0.108741           
         C10       1.0000    0.78230   0.69600   0.72720   Biso      1.000     C          -0.034329000000000005         
         C11       1.0000    0.60720   0.42230   0.00170   Biso      1.000     C          -0.108742           
         C12       1.0000    0.44230   0.89530   0.53270   Biso      1.000     C          -0.022716           
         C13       1.0000    0.62110   0.21670   0.43260   Biso      1.000     C          0.600387  
         C14       1.0000    0.44700   0.51450   0.88560   Biso      1.000     C          -0.023515           
         C15       1.0000    0.44450   0.56350   0.11100   Biso      1.000     C          -0.113629           
         C16       1.0000    0.36790   0.00370   0.54590   Biso      1.000     C          -0.111154           
         C17       1.0000    0.06670   0.28030   0.24960   Biso      1.000     C          -0.038761000000000004         
         C18       1.0000    0.57220   0.89290   0.48720   Biso      1.000     C          -0.105279           
         C19       1.0000    0.60780   0.47080   0.23860   Biso      1.000     C          0.5968479999999999  
         C20       1.0000    0.55550   0.43650   0.88900   Biso      1.000     C          -0.11363  
         H1        1.0000    0.32080   0.62990   0.99690   Biso      1.000     H          0.119179  
         H2        1.0000    0.27940   0.00600   0.57650   Biso      1.000     H          0.12246300000000002           
         H3        1.0000    0.99980   0.21270   0.17390   Biso      1.000     H          0.133178  
         H4        1.0000    0.59260   0.39400   0.81440   Biso      1.000     H          0.122405  
         H5        1.0000    0.72610   0.74390   0.78440   Biso      1.000     H          0.13521   
         H6        1.0000    0.62090   0.82110   0.47830   Biso      1.000     H          0.123421  
         H7        1.0000    0.37910   0.17890   0.52170   Biso      1.000     H          0.123422  
         H8        1.0000    0.00020   0.78730   0.82610   Biso      1.000     H          0.133182  
         H9        1.0000    0.72060   0.99400   0.42350   Biso      1.000     H          0.12246300000000002           
         H10       1.0000    0.27390   0.25610   0.21560   Biso      1.000     H          0.135213  
         H11       1.0000    0.67920   0.37010   0.00310   Biso      1.000     H          0.119179  
         H12       1.0000    0.40740   0.60600   0.18560   Biso      1.000     H          0.122405  
         N1        1.0000    0.84250   0.55130   0.55870   Biso      1.000     N          -0.059012           
         N2        1.0000    0.02860   0.37110   0.35490   Biso      1.000     N          -0.151113           
         N3        1.0000    0.27430   0.40930   0.39300   Biso      1.000     N          -0.134716           
         N4        1.0000    0.15750   0.44870   0.44130   Biso      1.000     N          -0.05894  
         N5        1.0000    0.72570   0.59070   0.60700   Biso      1.000     N          -0.13468  
         N6        1.0000    0.97140   0.62890   0.64510   Biso      1.000     N          -0.15107  
         O1        1.0000    0.75010   0.21810   0.40570   Biso      1.000     O          -0.5357029999999999           
         O2        1.0000    0.71540   0.40610   0.23620   Biso      1.000     O          -0.553198           
         O3        1.0000    0.55040   0.52270   0.33380   Biso      1.000     O          -0.557254           
         O4        1.0000    0.24990   0.78190   0.59430   Biso      1.000     O          -0.535702           
         O5        1.0000    0.45520   0.69720   0.57020   Biso      1.000     O          -0.58357  
         O6        1.0000    0.44960   0.47730   0.66620   Biso      1.000     O          -0.5572560000000001           
         O7        1.0000    0.28460   0.59390   0.76380   Biso      1.000     O          -0.553196           
         O8        1.0000    0.54480   0.30280   0.42980   Biso      1.000     O          -0.583568           
         Zn1       1.0000    0.81965   0.38671   0.38601   Biso      1.000     Zn          0.735829  
         Zn2       1.0000    0.18035   0.61329   0.61399   Biso      1.000     Zn          0.7358180000000001  
         Zn3       1.0000    0.50000   0.50000   0.50000   Biso      1.000     Zn          0.887484 