
##########################################################################
#               Crystallographic Information Format file
#               Produced by PyCifRW module
#
#  This is a CIF file.  CIF has been adopted by the International
#  Union of Crystallography as the standard for data archiving and
#  transmission.
#
#  For information on this file format, follow the CIF links at
#  http://www.iucr.org
##########################################################################

data_image0

_cell_length_a                          7.419
_cell_length_b                          9.969
_cell_length_c                          11.148
_cell_angle_alpha                       65.152
_cell_angle_beta                        76.109
_cell_angle_gamma                       69.965
_symmetry_space_group_name_H-M          'P 1'
_symmetry_int_tables_number             1
loop_
  _symmetry_equiv_pos_as_xyz
         'x, y, z' 
loop_
  _atom_site_label
  _atom_site_occupancy
  _atom_site_fract_x
  _atom_site_fract_y
  _atom_site_fract_z
  _atom_site_thermal_displace_type
  _atom_site_B_iso_or_equiv
  _atom_site_type_symbol
  _atom_site_charge
         C1        1.0000    0.84970   0.83660   0.55590   Biso      1.000     C          -0.075364           
         C2        1.0000    0.81730   0.05620   0.33280   Biso      1.000     C          0.63612   
         C3        1.0000    0.07580   0.80800   0.36870   Biso      1.000     C          -0.099425           
         C4        1.0000    0.33350   0.56600   0.38240   Biso      1.000     C          0.577616  
         C5        1.0000    0.16560   0.65860   0.44620   Biso      1.000     C          0.009114  
         C6        1.0000    0.91660   0.89730   0.42110   Biso      1.000     C          -0.020708           
         C7        1.0000    0.09560   0.59720   0.57970   Biso      1.000     C          -0.094614           
         C8        1.0000    0.94010   0.68600   0.63460   Biso      1.000     C          -0.186419           
         C9        1.0000    0.18270   0.94380   0.66720   Biso      1.000     C          0.63612   
         C10       1.0000    0.92420   0.19200   0.63130   Biso      1.000     C          -0.099425           
         C11       1.0000    0.66650   0.43400   0.61760   Biso      1.000     C          0.577616  
         C12       1.0000    0.83440   0.34140   0.55380   Biso      1.000     C          0.009114  
         C13       1.0000    0.08340   0.10270   0.57890   Biso      1.000     C          -0.020708           
         C14       1.0000    0.90440   0.40280   0.42030   Biso      1.000     C          -0.094614           
         C15       1.0000    0.15030   0.16340   0.44410   Biso      1.000     C          -0.075364           
         C16       1.0000    0.05990   0.31400   0.36540   Biso      1.000     C          -0.186419           
         H1        1.0000    0.25470   0.10380   0.40670   Biso      1.000     H          0.125803  
         H2        1.0000    0.12360   0.84890   0.27980   Biso      1.000     H          0.122571  
         H3        1.0000    0.15350   0.49640   0.63180   Biso      1.000     H          0.128889  
         H4        1.0000    0.74530   0.89620   0.59330   Biso      1.000     H          0.125802  
         H5        1.0000    0.76500   0.50700   0.11300   Biso      1.000     H          0.442011  
         H6        1.0000    0.87640   0.15110   0.72020   Biso      1.000     H          0.122571  
         H7        1.0000    0.84650   0.50360   0.36820   Biso      1.000     H          0.128889  
         H8        1.0000    0.23500   0.49300   0.88700   Biso      1.000     H          0.442011  
         O1        1.0000    0.14080   0.28040   0.12940   Biso      1.000     O          -0.765414           
         O2        1.0000    0.86540   0.09430   0.21060   Biso      1.000     O          -0.5898180000000001           
         O3        1.0000    0.69250   0.14130   0.39040   Biso      1.000     O          -0.540392           
         O4        1.0000    0.41520   0.63180   0.27170   Biso      1.000     O          -0.588168           
         O5        1.0000    0.13460   0.90570   0.78940   Biso      1.000     O          -0.5898180000000001           
         O6        1.0000    0.63980   0.61690   0.81790   Biso      1.000     O          -0.773555           
         O7        1.0000    0.29290   0.56090   0.87780   Biso      1.000     O          -0.923897           
         O8        1.0000    0.02280   0.55090   0.13240   Biso      1.000     O          -0.763702           
         O9        1.0000    0.38890   0.42060   0.44180   Biso      1.000     O          -0.563753           
         O10       1.0000    0.30750   0.85870   0.60960   Biso      1.000     O          -0.540392           
         O11       1.0000    0.97720   0.44910   0.86760   Biso      1.000     O          -0.763702           
         O12       1.0000    0.61110   0.57940   0.55820   Biso      1.000     O          -0.563753           
         O13       1.0000    0.36020   0.38310   0.18210   Biso      1.000     O          -0.773555           
         O14       1.0000    0.70710   0.43910   0.12220   Biso      1.000     O          -0.9238959999999999           
         O15       1.0000    0.85920   0.71960   0.87060   Biso      1.000     O          -0.765414           
         O16       1.0000    0.58480   0.36820   0.72830   Biso      1.000     O          -0.588168           
         P1        1.0000    0.85240   0.61140   0.80879   Biso      1.000     P          1.316389  
         P2        1.0000    0.14760   0.38860   0.19121   Biso      1.000     P          1.316389  
         Zn1       1.0000    0.50000   0.50000   0.00000   Biso      1.000     Zn          1.04875   
         Zn2       1.0000    0.07410   0.71801   0.95208   Biso      1.000     Zn          1.0968790000000002  
         Zn3       1.0000    0.44334   0.64693   0.70507   Biso      1.000     Zn          1.0054610000000002  
         Zn4       1.0000    0.92590   0.28199   0.04792   Biso      1.000     Zn          1.0968790000000002  
         Zn5       1.0000    0.55666   0.35307   0.29493   Biso      1.000     Zn          1.00546 