
##########################################################################
#               Crystallographic Information Format file
#               Produced by PyCifRW module
#
#  This is a CIF file.  CIF has been adopted by the International
#  Union of Crystallography as the standard for data archiving and
#  transmission.
#
#  For information on this file format, follow the CIF links at
#  http://www.iucr.org
##########################################################################

data_image0

_cell_length_a                          9.866
_cell_length_b                          13.963
_cell_length_c                          15.449
_cell_angle_alpha                       90
_cell_angle_beta                        90
_cell_angle_gamma                       90
_symmetry_space_group_name_H-M          'P 1'
_symmetry_int_tables_number             1
loop_
  _symmetry_equiv_pos_as_xyz
         'x, y, z' 
loop_
  _atom_site_label
  _atom_site_occupancy
  _atom_site_fract_x
  _atom_site_fract_y
  _atom_site_fract_z
  _atom_site_thermal_displace_type
  _atom_site_B_iso_or_equiv
  _atom_site_type_symbol
  _atom_site_charge
         C1        1.0000    0.04240   0.91350   0.23100   Biso      1.000     C          -0.128363           
         C2        1.0000    0.28780   0.42420   0.34810   Biso      1.000     C          -0.146668           
         C3        1.0000    0.39230   0.48430   0.37400   Biso      1.000     C          -0.052203           
         C4        1.0000    0.54240   0.41350   0.26900   Biso      1.000     C          -0.130528           
         C5        1.0000    0.43880   0.35170   0.24330   Biso      1.000     C          0.02683   
         C6        1.0000    0.31310   0.35650   0.28390   Biso      1.000     C          -0.060849           
         C7        1.0000    0.63030   0.54960   0.36160   Biso      1.000     C          0.558845  
         C8        1.0000    0.45800   0.28060   0.17040   Biso      1.000     C          0.566331  
         C9        1.0000    0.78780   0.92420   0.15190   Biso      1.000     C          -0.14416  
         C10       1.0000    0.89230   0.98430   0.12600   Biso      1.000     C          -0.053304           
         C11       1.0000    0.02000   0.98040   0.16480   Biso      1.000     C          0.016951  
         C12       1.0000    0.04200   0.21940   0.67040   Biso      1.000     C          0.565194  
         C13       1.0000    0.93880   0.85170   0.25670   Biso      1.000     C          0.025805  
         C14       1.0000    0.13030   0.04960   0.13840   Biso      1.000     C          0.559306  
         C15       1.0000    0.95800   0.78060   0.32960   Biso      1.000     C          0.565011  
         C16       1.0000    0.71220   0.57580   0.65190   Biso      1.000     C          -0.130817           
         C17       1.0000    0.60770   0.51570   0.62600   Biso      1.000     C          -0.056587           
         C18       1.0000    0.48000   0.51960   0.66480   Biso      1.000     C          0.020697  
         C19       1.0000    0.45760   0.58650   0.73100   Biso      1.000     C          -0.118753           
         C20       1.0000    0.56120   0.64830   0.75670   Biso      1.000     C          0.022204  
         C21       1.0000    0.68690   0.64350   0.71610   Biso      1.000     C          -0.051825           
         C22       1.0000    0.36970   0.45040   0.63840   Biso      1.000     C          0.555751  
         C23       1.0000    0.54200   0.71940   0.82960   Biso      1.000     C          0.565258  
         C24       1.0000    0.81310   0.85650   0.21610   Biso      1.000     C          -0.060345           
         C25       1.0000    0.86970   0.95040   0.86160   Biso      1.000     C          0.559141  
         C26       1.0000    0.52000   0.48040   0.33520   Biso      1.000     C          0.01744   
         C27       1.0000    0.06120   0.14830   0.74330   Biso      1.000     C          0.027702  
         C28       1.0000    0.95760   0.08650   0.76900   Biso      1.000     C          -0.128226           
         C29       1.0000    0.98000   0.01960   0.83520   Biso      1.000     C          0.016877  
         C30       1.0000    0.10770   0.01570   0.87400   Biso      1.000     C          -0.050875           
         C31       1.0000    0.21220   0.07580   0.84810   Biso      1.000     C          -0.143681           
         C32       1.0000    0.18690   0.14350   0.78390   Biso      1.000     C          -0.050663           
         H1        1.0000    0.12310   0.97180   0.91820   Biso      1.000     H          0.127055  
         H2        1.0000    0.25490   0.18610   0.76800   Biso      1.000     H          0.136621  
         H3        1.0000    0.37690   0.52820   0.41820   Biso      1.000     H          0.126827  
         H4        1.0000    0.62660   0.41040   0.24210   Biso      1.000     H          0.160208  
         H5        1.0000    0.24510   0.31390   0.26800   Biso      1.000     H          0.14959   
         H6        1.0000    0.87340   0.08960   0.74210   Biso      1.000     H          0.160283  
         H7        1.0000    0.12660   0.91040   0.25790   Biso      1.000     H          0.160104  
         H8        1.0000    0.74510   0.81390   0.23200   Biso      1.000     H          0.149882  
         H9        1.0000    0.62310   0.47180   0.58180   Biso      1.000     H          0.128809  
         H10       1.0000    0.37340   0.58960   0.75790   Biso      1.000     H          0.160921  
         H11       1.0000    0.75490   0.68610   0.73200   Biso      1.000     H          0.152264  
         H12       1.0000    0.87690   0.02820   0.08180   Biso      1.000     H          0.127093  
         O1        1.0000    0.74970   0.51560   0.36213   Biso      1.000     O          -0.501798           
         O2        1.0000    0.52330   0.30330   0.10579   Biso      1.000     O          -0.335765           
         O3        1.0000    0.40400   0.19888   0.18398   Biso      1.000     O          -0.512006           
         O4        1.0000    0.58250   0.03454   0.09259   Biso      1.000     O          -0.649638           
         O5        1.0000    0.62610   0.87131   0.02177   Biso      1.000     O          -0.631496           
         O6        1.0000    0.52580   0.88095   0.17090   Biso      1.000     O          -0.450879           
         O7        1.0000    0.09740   0.13180   0.11970   Biso      1.000     O          -0.361632           
         O8        1.0000    0.97420   0.61905   0.67090   Biso      1.000     O          -0.505719           
         O9        1.0000    0.40260   0.36820   0.61970   Biso      1.000     O          -0.355046           
         O10       1.0000    0.87390   0.62869   0.52177   Biso      1.000     O          -0.650153           
         O11       1.0000    0.91750   0.46546   0.59259   Biso      1.000     O          -0.673693           
         O12       1.0000    0.90400   0.69888   0.31602   Biso      1.000     O          -0.509596           
         O13       1.0000    0.02330   0.80330   0.39421   Biso      1.000     O          -0.32777  
         O14       1.0000    0.59740   0.63180   0.38030   Biso      1.000     O          -0.355826           
         O15       1.0000    0.24970   0.01560   0.13787   Biso      1.000     O          -0.499159           
         O16       1.0000    0.25030   0.48440   0.63787   Biso      1.000     O          -0.490373           
         O17       1.0000    0.02580   0.38095   0.32910   Biso      1.000     O          -0.447371           
         O18       1.0000    0.59600   0.80112   0.81602   Biso      1.000     O          -0.508667           
         O19       1.0000    0.08250   0.53454   0.40741   Biso      1.000     O          -0.643278           
         O20       1.0000    0.12610   0.37131   0.47823   Biso      1.000     O          -0.630425           
         O21       1.0000    0.41750   0.96546   0.90741   Biso      1.000     O          -0.650367           
         O22       1.0000    0.37390   0.12869   0.97823   Biso      1.000     O          -0.630673           
         O23       1.0000    0.47420   0.11905   0.82910   Biso      1.000     O          -0.451146           
         O24       1.0000    0.47670   0.69670   0.89421   Biso      1.000     O          -0.330833           
         O25       1.0000    0.75030   0.98440   0.86213   Biso      1.000     O          -0.498977           
         O26       1.0000    0.97670   0.19670   0.60579   Biso      1.000     O          -0.330789           
         O27       1.0000    0.09600   0.30112   0.68398   Biso      1.000     O          -0.507594           
         O28       1.0000    0.90260   0.86820   0.88030   Biso      1.000     O          -0.358258           
         P1        1.0000    0.88092   0.57091   0.60532   Biso      1.000     P          1.205154  
         P2        1.0000    0.61908   0.92909   0.10532   Biso      1.000     P          1.193724  
         P3        1.0000    0.11908   0.42909   0.39468   Biso      1.000     P          1.192896  
         P4        1.0000    0.38092   0.07091   0.89468   Biso      1.000     P          1.194176  
         Zn1       1.0000    0.09721   0.40409   0.59772   Biso      1.000     Zn          1.031731  
         Zn2       1.0000    0.40279   0.09591   0.09772   Biso      1.000     Zn          1.027569  
         Zn3       1.0000    0.90279   0.59591   0.40228   Biso      1.000     Zn          1.02518   
         Zn4       1.0000    0.59721   0.90409   0.90228   Biso      1.000     Zn          1.027341 