
##########################################################################
#               Crystallographic Information Format file
#               Produced by PyCifRW module
#
#  This is a CIF file.  CIF has been adopted by the International
#  Union of Crystallography as the standard for data archiving and
#  transmission.
#
#  For information on this file format, follow the CIF links at
#  http://www.iucr.org
##########################################################################

data_image0

_cell_length_a                          9.534
_cell_length_b                          13.3884
_cell_length_c                          14.4817
_cell_angle_alpha                       79.9401
_cell_angle_beta                        70.7814
_cell_angle_gamma                       69.1419
_symmetry_space_group_name_H-M          'P 1'
_symmetry_int_tables_number             1
loop_
  _symmetry_equiv_pos_as_xyz
         'x, y, z' 
loop_
  _atom_site_label
  _atom_site_occupancy
  _atom_site_fract_x
  _atom_site_fract_y
  _atom_site_fract_z
  _atom_site_thermal_displace_type
  _atom_site_B_iso_or_equiv
  _atom_site_type_symbol
  _atom_site_charge
         C1        1.0000    0.01641   0.96266   0.19912   Biso      1.000     C          0.596316  
         C2        1.0000    0.00568   0.98202   0.09602   Biso      1.000     C          -0.017713999999999997         
         C3        1.0000    0.65917   0.84686   0.78740   Biso      1.000     C          -0.09781799999999999          
         C4        1.0000    0.55051   0.30103   0.99755   Biso      1.000     C          0.624455  
         C5        1.0000    0.34083   0.15314   0.21260   Biso      1.000     C          -0.097798           
         C6        1.0000    0.38959   0.23412   0.15370   Biso      1.000     C          -0.10362400000000001          
         C7        1.0000    0.50518   0.21209   0.06515   Biso      1.000     C          -0.036741           
         C8        1.0000    0.04110   0.89668   0.04172   Biso      1.000     C          -0.10276300000000001          
         C9        1.0000    0.57410   0.10750   0.03850   Biso      1.000     C          -0.09364299999999999          
         C10       1.0000    0.40784   0.04892   0.18600   Biso      1.000     C          -0.017537999999999998         
         C11       1.0000    0.34434   0.96292   0.24780   Biso      1.000     C          0.613024  
         C12       1.0000    0.10423   0.41474   0.44580   Biso      1.000     C          -0.103651           
         C13       1.0000    0.97950   0.60332   0.45828   Biso      1.000     C          -0.101378           
         C14       1.0000    0.08372   0.51798   0.40398   Biso      1.000     C          -0.019378           
         C15       1.0000    0.17819   0.53734   0.30088   Biso      1.000     C          0.5972770000000001  
         C16       1.0000    0.52723   0.02634   0.09960   Biso      1.000     C          -0.10580999999999999          
         C17       1.0000    0.84909   0.19897   0.50245   Biso      1.000     C          0.6229359999999999  
         C18       1.0000    0.96477   0.08526   0.05420   Biso      1.000     C          -0.10338  
         C19       1.0000    0.35724   0.54892   0.68600   Biso      1.000     C          -0.017428           
         C20       1.0000    0.42590   0.89250   0.96150   Biso      1.000     C          -0.093654           
         C21       1.0000    0.47277   0.97366   0.90040   Biso      1.000     C          -0.105808           
         C22       1.0000    0.59216   0.95108   0.81400   Biso      1.000     C          -0.017525           
         C23       1.0000    0.65566   0.03708   0.75220   Biso      1.000     C          0.612995  
         C24       1.0000    0.89577   0.58526   0.55420   Biso      1.000     C          -0.103674           
         C25       1.0000    0.02050   0.39668   0.54172   Biso      1.000     C          -0.101384           
         C26       1.0000    0.44494   0.46292   0.74780   Biso      1.000     C          0.612707  
         C27       1.0000    0.91628   0.48202   0.59602   Biso      1.000     C          -0.019303           
         C28       1.0000    0.15091   0.80103   0.49755   Biso      1.000     C          0.6229640000000001  
         C29       1.0000    0.29343   0.65314   0.71260   Biso      1.000     C          -0.10303499999999999          
         C30       1.0000    0.22259   0.73412   0.65370   Biso      1.000     C          -0.101214           
         C31       1.0000    0.21758   0.71209   0.56515   Biso      1.000     C          -0.034707999999999996         
         C32       1.0000    0.27990   0.60750   0.53850   Biso      1.000     C          -0.09709  
         C33       1.0000    0.34683   0.52634   0.59960   Biso      1.000     C          -0.103701           
         C34       1.0000    0.82181   0.46266   0.69912   Biso      1.000     C          0.5972149999999999  
         C35       1.0000    0.70657   0.34686   0.28740   Biso      1.000     C          -0.103031           
         C36       1.0000    0.77741   0.26588   0.34630   Biso      1.000     C          -0.101222           
         C37       1.0000    0.78242   0.28791   0.43485   Biso      1.000     C          -0.034664999999999994         
         C38       1.0000    0.03523   0.91474   0.94580   Biso      1.000     C          -0.10339100000000001          
         C39       1.0000    0.95890   0.10332   0.95828   Biso      1.000     C          -0.10274900000000001          
         C40       1.0000    0.99432   0.01798   0.90398   Biso      1.000     C          -0.017685           
         C41       1.0000    0.98359   0.03734   0.80088   Biso      1.000     C          0.59629   
         C42       1.0000    0.44949   0.69897   0.00245   Biso      1.000     C          0.62448   
         C43       1.0000    0.49482   0.78791   0.93485   Biso      1.000     C          -0.036761           
         C44       1.0000    0.61041   0.76588   0.84630   Biso      1.000     C          -0.103592           
         C45       1.0000    0.72010   0.39250   0.46150   Biso      1.000     C          -0.097092           
         C46       1.0000    0.65317   0.47366   0.40040   Biso      1.000     C          -0.103699           
         C47       1.0000    0.64276   0.45108   0.31400   Biso      1.000     C          -0.017465           
         C48       1.0000    0.55506   0.53708   0.25220   Biso      1.000     C          0.612731  
         H1        1.0000    0.65520   0.69610   0.82650   Biso      1.000     H          0.11609900000000001           
         H2        1.0000    0.05890   0.85700   0.90940   Biso      1.000     H          0.122269  
         H3        1.0000    0.61480   0.54420   0.41780   Biso      1.000     H          0.119326  
         H4        1.0000    0.72310   0.40830   0.52070   Biso      1.000     H          0.110693  
         H5        1.0000    0.82220   0.19610   0.32650   Biso      1.000     H          0.115503  
         H6        1.0000    0.70150   0.33100   0.22880   Biso      1.000     H          0.119574  
         H7        1.0000    0.96550   0.67300   0.43040   Biso      1.000     H          0.12128900000000001           
         H8        1.0000    0.17470   0.35700   0.40940   Biso      1.000     H          0.12271199999999999           
         H9        1.0000    0.57680   0.95580   0.08220   Biso      1.000     H          0.12010799999999999           
         H10       1.0000    0.65210   0.09170   0.97930   Biso      1.000     H          0.10966300000000001           
         H11       1.0000    0.34480   0.30390   0.17350   Biso      1.000     H          0.116131  
         H12       1.0000    0.26130   0.16900   0.27120   Biso      1.000     H          0.117529  
         H13       1.0000    0.06890   0.82700   0.06960   Biso      1.000     H          0.12180099999999999           
         H14       1.0000    0.93110   0.17300   0.93040   Biso      1.000     H          0.121777  
         H15       1.0000    0.38520   0.45580   0.58220   Biso      1.000     H          0.11933099999999999           
         H16       1.0000    0.27690   0.59170   0.47930   Biso      1.000     H          0.11071900000000001           
         H17       1.0000    0.17780   0.80390   0.67350   Biso      1.000     H          0.115514  
         H18       1.0000    0.29850   0.66900   0.77120   Biso      1.000     H          0.119585  
         H19       1.0000    0.03450   0.32700   0.56960   Biso      1.000     H          0.121273  
         H20       1.0000    0.82530   0.64300   0.59060   Biso      1.000     H          0.12271900000000001           
         H21       1.0000    0.42320   0.04420   0.91780   Biso      1.000     H          0.12009500000000001           
         H22       1.0000    0.34790   0.90830   0.02070   Biso      1.000     H          0.109672  
         H23       1.0000    0.73870   0.83100   0.72880   Biso      1.000     H          0.117525  
         H24       1.0000    0.94110   0.14300   0.09060   Biso      1.000     H          0.122268  
         Mn1       1.0000    0.37230   0.53244   0.11550   Biso      1.000     Mn          1.015379  
         Mn2       1.0000    0.71126   0.25000   0.75000   Biso      1.000     Mn          1.131077  
         Mn3       1.0000    0.28874   0.75000   0.25000   Biso      1.000     Mn          1.131174  
         Mn4       1.0000    0.97976   0.03244   0.61550   Biso      1.000     Mn          1.016089  
         Mn5       1.0000    0.62770   0.46756   0.88450   Biso      1.000     Mn          1.015441  
         Mn6       1.0000    0.02024   0.96756   0.38450   Biso      1.000     Mn          1.01625   
         O1        1.0000    0.49960   0.60615   0.97205   Biso      1.000     O          -0.57915  
         O2        1.0000    0.36244   0.71612   0.08820   Biso      1.000     O          -0.573414           
         O3        1.0000    0.75822   0.01046   0.67250   Biso      1.000     O          -0.580579           
         O4        1.0000    0.60416   0.12793   0.78515   Biso      1.000     O          -0.5672729999999999           
         O5        1.0000    0.74293   0.54156   0.74958   Biso      1.000     O          -0.546404           
         O6        1.0000    0.82308   0.36979   0.73165   Biso      1.000     O          -0.596669           
         O7        1.0000    0.07780   0.89385   0.52795   Biso      1.000     O          -0.579097           
         O8        1.0000    0.16676   0.78388   0.41180   Biso      1.000     O          -0.572868           
         O9        1.0000    0.44118   0.48954   0.82750   Biso      1.000     O          -0.581092           
         O10       1.0000    0.51724   0.37207   0.71485   Biso      1.000     O          -0.565772           
         O11       1.0000    0.96593   0.04156   0.24958   Biso      1.000     O          -0.545982           
         O12       1.0000    0.50040   0.39385   0.02795   Biso      1.000     O          -0.579133           
         O13       1.0000    0.92452   0.13021   0.76835   Biso      1.000     O          -0.597063           
         O14       1.0000    0.63756   0.28388   0.91180   Biso      1.000     O          -0.573379           
         O15       1.0000    0.24178   0.98954   0.32750   Biso      1.000     O          -0.5805899999999999           
         O16       1.0000    0.39584   0.87207   0.21485   Biso      1.000     O          -0.567278           
         O17       1.0000    0.25707   0.45844   0.25042   Biso      1.000     O          -0.546441           
         O18       1.0000    0.17692   0.63021   0.26835   Biso      1.000     O          -0.59672  
         O19       1.0000    0.92220   0.10615   0.47205   Biso      1.000     O          -0.579102           
         O20       1.0000    0.83324   0.21612   0.58820   Biso      1.000     O          -0.572852           
         O21       1.0000    0.55882   0.51046   0.17250   Biso      1.000     O          -0.581128           
         O22       1.0000    0.48276   0.62793   0.28515   Biso      1.000     O          -0.565811           
         O23       1.0000    0.07548   0.86979   0.23165   Biso      1.000     O          -0.5970810000000001           
         O24       1.0000    0.03407   0.95844   0.75042   Biso      1.000     O          -0.54598 