
##########################################################################
#               Crystallographic Information Format file
#               Produced by PyCifRW module
#
#  This is a CIF file.  CIF has been adopted by the International
#  Union of Crystallography as the standard for data archiving and
#  transmission.
#
#  For information on this file format, follow the CIF links at
#  http://www.iucr.org
##########################################################################

data_image0

_cell_length_a                          9.5347
_cell_length_b                          13.3778
_cell_length_c                          14.4744
_cell_angle_alpha                       79.9477
_cell_angle_beta                        70.7697
_cell_angle_gamma                       69.123
_symmetry_space_group_name_H-M          'P 1'
_symmetry_int_tables_number             1
loop_
  _symmetry_equiv_pos_as_xyz
         'x, y, z' 
loop_
  _atom_site_label
  _atom_site_occupancy
  _atom_site_fract_x
  _atom_site_fract_y
  _atom_site_fract_z
  _atom_site_thermal_displace_type
  _atom_site_B_iso_or_equiv
  _atom_site_type_symbol
  _atom_site_charge
         C1        1.0000    0.67860   0.03660   0.80100   Biso      1.000     C          0.593379  
         C2        1.0000    0.58360   0.01850   0.90390   Biso      1.000     C          -0.017358           
         C3        1.0000    0.89000   0.73470   0.65350   Biso      1.000     C          -0.10604  
         C4        1.0000    0.15620   0.53730   0.25230   Biso      1.000     C          0.61179   
         C5        1.0000    0.11000   0.26530   0.34650   Biso      1.000     C          -0.106041           
         C6        1.0000    0.15920   0.34720   0.28760   Biso      1.000     C          -0.09879  
         C7        1.0000    0.09190   0.45120   0.31380   Biso      1.000     C          -0.01699  
         C8        1.0000    0.60470   0.91440   0.94640   Biso      1.000     C          -0.101946           
         C9        1.0000    0.97270   0.47340   0.40100   Biso      1.000     C          -0.106549           
         C10       1.0000    0.99500   0.28770   0.43470   Biso      1.000     C          -0.034857           
         C11       1.0000    0.94910   0.19900   0.50200   Biso      1.000     C          0.623855  
         C12       1.0000    0.54130   0.39700   0.54160   Biso      1.000     C          -0.099815           
         C13       1.0000    0.46550   0.58560   0.55360   Biso      1.000     C          -0.103489           
         C14       1.0000    0.50600   0.48150   0.59610   Biso      1.000     C          -0.016911           
         C15       1.0000    0.51620   0.46340   0.69900   Biso      1.000     C          0.593471  
         C16       1.0000    0.92600   0.39230   0.46150   Biso      1.000     C          -0.094741           
         C17       1.0000    0.94580   0.96270   0.24770   Biso      1.000     C          0.612299  
         C18       1.0000    0.47990   0.10300   0.95840   Biso      1.000     C          -0.099668           
         C19       1.0000    0.28260   0.78770   0.93470   Biso      1.000     C          -0.033255           
         C20       1.0000    0.02730   0.52660   0.59900   Biso      1.000     C          -0.106546           
         C21       1.0000    0.07400   0.60770   0.53850   Biso      1.000     C          -0.094738           
         C22       1.0000    0.00500   0.71230   0.56530   Biso      1.000     C          -0.03485  
         C23       1.0000    0.05090   0.80100   0.49800   Biso      1.000     C          0.62385   
         C24       1.0000    0.45870   0.60300   0.45840   Biso      1.000     C          -0.099813           
         C25       1.0000    0.53450   0.41440   0.44640   Biso      1.000     C          -0.103485           
         C26       1.0000    0.34990   0.69900   0.00200   Biso      1.000     C          0.623363  
         C27       1.0000    0.49400   0.51850   0.40390   Biso      1.000     C          -0.016911           
         C28       1.0000    0.05420   0.03730   0.75230   Biso      1.000     C          0.612292  
         C29       1.0000    0.27820   0.76530   0.84650   Biso      1.000     C          -0.103443           
         C30       1.0000    0.20600   0.84720   0.78760   Biso      1.000     C          -0.102159           
         C31       1.0000    0.14310   0.95120   0.81380   Biso      1.000     C          -0.018437           
         C32       1.0000    0.15290   0.97340   0.90100   Biso      1.000     C          -0.103609           
         C33       1.0000    0.22020   0.89230   0.96150   Biso      1.000     C          -0.098112           
         C34       1.0000    0.48380   0.53660   0.30100   Biso      1.000     C          0.593464  
         C35       1.0000    0.72180   0.23470   0.15350   Biso      1.000     C          -0.103431           
         C36       1.0000    0.79400   0.15280   0.21240   Biso      1.000     C          -0.102159           
         C37       1.0000    0.85690   0.04880   0.18620   Biso      1.000     C          -0.01844  
         C38       1.0000    0.52010   0.89700   0.04160   Biso      1.000     C          -0.099661           
         C39       1.0000    0.39530   0.08560   0.05360   Biso      1.000     C          -0.101942           
         C40       1.0000    0.41640   0.98150   0.09610   Biso      1.000     C          -0.017357           
         C41       1.0000    0.32140   0.96340   0.19900   Biso      1.000     C          0.593383  
         C42       1.0000    0.84380   0.46270   0.74770   Biso      1.000     C          0.611785  
         C43       1.0000    0.90810   0.54880   0.68620   Biso      1.000     C          -0.016993           
         C44       1.0000    0.84080   0.65280   0.71240   Biso      1.000     C          -0.098783           
         C45       1.0000    0.84710   0.02660   0.09900   Biso      1.000     C          -0.103602           
         C46       1.0000    0.77980   0.10770   0.03850   Biso      1.000     C          -0.098125           
         C47       1.0000    0.71740   0.21230   0.06530   Biso      1.000     C          -0.033237           
         C48       1.0000    0.65010   0.30100   0.99800   Biso      1.000     C          0.623365  
         H1        1.0000    0.76060   0.66890   0.77070   Biso      1.000     H          0.117376  
         H2        1.0000    0.53340   0.82720   0.06920   Biso      1.000     H          0.120127  
         H3        1.0000    0.77630   0.09210   0.97930   Biso      1.000     H          0.110439  
         H4        1.0000    0.88640   0.95620   0.08100   Biso      1.000     H          0.118476  
         H5        1.0000    0.79980   0.16890   0.27070   Biso      1.000     H          0.119686  
         H6        1.0000    0.67640   0.30460   0.17340   Biso      1.000     H          0.116482  
         H7        1.0000    0.44310   0.64330   0.58970   Biso      1.000     H          0.122393  
         H8        1.0000    0.57020   0.32720   0.56920   Biso      1.000     H          0.120497  
         H9        1.0000    0.84770   0.40790   0.52070   Biso      1.000     H          0.109647  
         H10       1.0000    0.92360   0.54380   0.41900   Biso      1.000     H          0.119355  
         H11       1.0000    0.23940   0.33110   0.22930   Biso      1.000     H          0.11738   
         H12       1.0000    0.15440   0.19540   0.32660   Biso      1.000     H          0.117762  
         H13       1.0000    0.67610   0.85670   0.91030   Biso      1.000     H          0.12156   
         H14       1.0000    0.32390   0.14330   0.08970   Biso      1.000     H          0.12156   
         H15       1.0000    0.22370   0.90790   0.02070   Biso      1.000     H          0.110435  
         H16       1.0000    0.11360   0.04380   0.91900   Biso      1.000     H          0.118476  
         H17       1.0000    0.20020   0.83110   0.72930   Biso      1.000     H          0.119684  
         H18       1.0000    0.32360   0.69540   0.82660   Biso      1.000     H          0.116488  
         H19       1.0000    0.55690   0.35670   0.41030   Biso      1.000     H          0.122392  
         H20       1.0000    0.42980   0.67280   0.43080   Biso      1.000     H          0.120501  
         H21       1.0000    0.15230   0.59210   0.47930   Biso      1.000     H          0.109639  
         H22       1.0000    0.07640   0.45620   0.58100   Biso      1.000     H          0.119351  
         H23       1.0000    0.84560   0.80460   0.67340   Biso      1.000     H          0.117758  
         H24       1.0000    0.46660   0.17280   0.93080   Biso      1.000     H          0.120129  
         Mn1       1.0000    0.52041   0.46752   0.88456   Biso      1.000     Mn          1.014249  
         Mn2       1.0000    0.21112   0.75000   0.25000   Biso      1.000     Mn          1.132173  
         Mn3       1.0000    0.78888   0.25000   0.75000   Biso      1.000     Mn          1.132134  
         Mn4       1.0000    0.12751   0.96752   0.38456   Biso      1.000     Mn          1.014127  
         Mn5       1.0000    0.47959   0.53248   0.11544   Biso      1.000     Mn          1.01427   
         Mn6       1.0000    0.87249   0.03248   0.61544   Biso      1.000     Mn          1.014103  
         O1        1.0000    0.13760   0.78400   0.41220   Biso      1.000     O          -0.572856           
         O2        1.0000    0.32278   0.86944   0.23180   Biso      1.000     O          -0.601594           
         O3        1.0000    0.24170   0.04180   0.24980   Biso      1.000     O          -0.540864           
         O4        1.0000    0.00018   0.89394   0.52830   Biso      1.000     O          -0.578609           
         O5        1.0000    0.05868   0.01064   0.67200   Biso      1.000     O          -0.583245           
         O6        1.0000    0.98235   0.12780   0.78510   Biso      1.000     O          -0.560833           
         O7        1.0000    0.33380   0.71600   0.08780   Biso      1.000     O          -0.572827           
         O8        1.0000    0.42402   0.63056   0.26820   Biso      1.000     O          -0.602081           
         O9        1.0000    0.53330   0.45820   0.25020   Biso      1.000     O          -0.540646           
         O10       1.0000    0.42242   0.60606   0.97170   Biso      1.000     O          -0.578866           
         O11       1.0000    0.25868   0.51064   0.17200   Biso      1.000     O          -0.582206           
         O12       1.0000    0.86240   0.21600   0.58780   Biso      1.000     O          -0.572846           
         O13       1.0000    0.89525   0.37220   0.71490   Biso      1.000     O          -0.561721           
         O14       1.0000    0.67722   0.13056   0.76820   Biso      1.000     O          -0.601587           
         O15       1.0000    0.75830   0.95820   0.75020   Biso      1.000     O          -0.540851           
         O16       1.0000    0.99982   0.10606   0.47170   Biso      1.000     O          -0.578607           
         O17       1.0000    0.94132   0.98936   0.32800   Biso      1.000     O          -0.583245           
         O18       1.0000    0.01765   0.87220   0.21490   Biso      1.000     O          -0.560842           
         O19       1.0000    0.66620   0.28400   0.91220   Biso      1.000     O          -0.57283  
         O20       1.0000    0.57598   0.36944   0.73180   Biso      1.000     O          -0.602075           
         O21       1.0000    0.46670   0.54180   0.74980   Biso      1.000     O          -0.540634           
         O22       1.0000    0.57758   0.39394   0.02830   Biso      1.000     O          -0.578867           
         O23       1.0000    0.10475   0.62780   0.28510   Biso      1.000     O          -0.561733           
         O24       1.0000    0.74132   0.48936   0.82800   Biso      1.000     O          -0.582199 