
##########################################################################
#               Crystallographic Information Format file
#               Produced by PyCifRW module
#
#  This is a CIF file.  CIF has been adopted by the International
#  Union of Crystallography as the standard for data archiving and
#  transmission.
#
#  For information on this file format, follow the CIF links at
#  http://www.iucr.org
##########################################################################

data_image0

_cell_length_a                          12.6368
_cell_length_b                          14.4827
_cell_length_c                          18.082
_cell_angle_alpha                       83.373
_cell_angle_beta                        69.732
_cell_angle_gamma                       85.888
_symmetry_space_group_name_H-M          'P 1'
_symmetry_int_tables_number             1
loop_
  _symmetry_equiv_pos_as_xyz
         'x, y, z' 
loop_
  _atom_site_label
  _atom_site_occupancy
  _atom_site_fract_x
  _atom_site_fract_y
  _atom_site_fract_z
  _atom_site_thermal_displace_type
  _atom_site_B_iso_or_equiv
  _atom_site_type_symbol
  _atom_site_charge
         C1        1.0000    0.22514   0.38305   0.58785   Biso      1.000     C          -0.123633           
         C2        1.0000    0.98527   0.07983   0.63343   Biso      1.000     C          -0.188557           
         C3        1.0000    0.99775   0.98883   0.65244   Biso      1.000     C          -0.197988           
         C4        1.0000    0.92788   0.94188   0.62330   Biso      1.000     C          0.180661  
         C5        1.0000    0.91006   0.84794   0.63832   Biso      1.000     C          -0.08437  
         C6        1.0000    0.85170   0.80336   0.60190   Biso      1.000     C          0.16442   
         C7        1.0000    0.83086   0.70586   0.61602   Biso      1.000     C          -0.201441           
         C8        1.0000    0.78223   0.68637   0.56447   Biso      1.000     C          -0.187577           
         C9        1.0000    0.77249   0.77172   0.51832   Biso      1.000     C          0.176976  
         C10       1.0000    0.39477   0.31550   0.08572   Biso      1.000     C          0.685228  
         C11       1.0000    0.70073   0.69159   0.43167   Biso      1.000     C          0.068388  
         C12       1.0000    0.77486   0.61695   0.41215   Biso      1.000     C          -0.12363  
         C13       1.0000    0.52495   0.51921   0.69833   Biso      1.000     C          0.652576  
         C14       1.0000    0.50220   0.56436   0.62549   Biso      1.000     C          -0.188759           
         C15       1.0000    0.90467   0.08999   0.59287   Biso      1.000     C          0.180999  
         C16       1.0000    0.40739   0.31536   0.56987   Biso      1.000     C          -0.114998           
         C17       1.0000    0.36719   0.46873   0.60837   Biso      1.000     C          0.264643  
         C18       1.0000    0.25754   0.46251   0.60751   Biso      1.000     C          -0.214941           
         C19       1.0000    0.61301   0.16204   0.34536   Biso      1.000     C          0.077578  
         C20       1.0000    0.29927   0.30841   0.56833   Biso      1.000     C          0.068392  
         C21       1.0000    0.74246   0.53749   0.39249   Biso      1.000     C          -0.214941           
         C22       1.0000    0.60523   0.68450   0.91428   Biso      1.000     C          0.685228  
         C23       1.0000    0.60467   0.72436   0.83375   Biso      1.000     C          -0.174666           
         C24       1.0000    0.49764   0.84852   0.64866   Biso      1.000     C          -0.121172           
         C25       1.0000    0.54182   0.80144   0.70330   Biso      1.000     C          -0.236985           
         C26       1.0000    0.47390   0.74402   0.76488   Biso      1.000     C          0.253256  
         C27       1.0000    0.36596   0.72989   0.76929   Biso      1.000     C          -0.212887           
         C28       1.0000    0.32346   0.77705   0.71417   Biso      1.000     C          -0.120544           
         C29       1.0000    0.38699   0.83796   0.65464   Biso      1.000     C          0.077587  
         C30       1.0000    0.44113   0.39449   0.59038   Biso      1.000     C          -0.238838           
         C31       1.0000    0.39533   0.27564   0.16625   Biso      1.000     C          -0.174666           
         C32       1.0000    0.85659   0.17472   0.57471   Biso      1.000     C          -0.077373           
         C33       1.0000    0.78502   0.18085   0.53076   Biso      1.000     C          0.177797  
         C34       1.0000    0.63404   0.27011   0.23071   Biso      1.000     C          -0.212897           
         C35       1.0000    0.74049   0.48267   0.84830   Biso      1.000     C          0.621379  
         C36       1.0000    0.86083   0.49741   0.79316   Biso      1.000     C          -0.19208  
         C37       1.0000    0.91066   0.34255   0.56484   Biso      1.000     C          -0.126159           
         C38       1.0000    0.91273   0.42048   0.59985   Biso      1.000     C          -0.217215           
         C39       1.0000    0.87858   0.41815   0.68197   Biso      1.000     C          0.269617  
         C40       1.0000    0.84775   0.33495   0.72718   Biso      1.000     C          -0.240858           
         C41       1.0000    0.84537   0.25687   0.69020   Biso      1.000     C          -0.118793           
         C42       1.0000    0.87342   0.25896   0.60942   Biso      1.000     C          0.077001  
         C43       1.0000    0.52610   0.25598   0.23512   Biso      1.000     C          0.253261  
         C44       1.0000    0.45818   0.19856   0.29670   Biso      1.000     C          -0.236984           
         C45       1.0000    0.13720   0.60210   0.96617   Biso      1.000     C          0.683695  
         C46       1.0000    0.04520   0.64380   0.93471   Biso      1.000     C          -0.187046           
         C47       1.0000    0.91098   0.80687   0.77596   Biso      1.000     C          -0.125628           
         C48       1.0000    0.95016   0.75484   0.83100   Biso      1.000     C          -0.253027           
         C49       1.0000    0.03564   0.68911   0.80579   Biso      1.000     C          0.258481  
         C50       1.0000    0.07862   0.67346   0.72807   Biso      1.000     C          -0.209136           
         C51       1.0000    0.03836   0.72479   0.67373   Biso      1.000     C          -0.110266           
         C52       1.0000    0.95466   0.79214   0.69673   Biso      1.000     C          0.080023  
         C53       1.0000    0.73266   0.77821   0.45598   Biso      1.000     C          -0.084912           
         C54       1.0000    0.50236   0.15148   0.35134   Biso      1.000     C          -0.121168           
         C55       1.0000    0.71470   0.86383   0.41863   Biso      1.000     C          0.182078  
         C56       1.0000    0.68070   0.87448   0.34947   Biso      1.000     C          -0.195977           
         C57       1.0000    0.66017   0.96587   0.33528   Biso      1.000     C          -0.190837           
         C58       1.0000    0.68232   0.01205   0.39338   Biso      1.000     C          0.179339  
         C59       1.0000    0.66541   0.10609   0.39928   Biso      1.000     C          -0.073568           
         C60       1.0000    0.69981   0.15013   0.45048   Biso      1.000     C          0.17025   
         C61       1.0000    0.67886   0.24671   0.46168   Biso      1.000     C          -0.185008           
         C62       1.0000    0.72946   0.26531   0.51217   Biso      1.000     C          -0.196992           
         C63       1.0000    0.63281   0.53127   0.39163   Biso      1.000     C          0.264643  
         C64       1.0000    0.55887   0.60551   0.40962   Biso      1.000     C          -0.238838           
         C65       1.0000    0.67654   0.22295   0.28583   Biso      1.000     C          -0.120536           
         C66       1.0000    0.04534   0.20786   0.30327   Biso      1.000     C          0.08002   
         C67       1.0000    0.49780   0.43564   0.37451   Biso      1.000     C          -0.188759           
         C68       1.0000    0.86280   0.39790   0.03383   Biso      1.000     C          0.683695  
         C69       1.0000    0.31768   0.98795   0.60662   Biso      1.000     C          0.17934   
         C70       1.0000    0.95480   0.35620   0.06529   Biso      1.000     C          -0.187046           
         C71       1.0000    0.09533   0.91001   0.40713   Biso      1.000     C          0.180997  
         C72       1.0000    0.47505   0.48079   0.30167   Biso      1.000     C          0.652576  
         C73       1.0000    0.08902   0.19313   0.22404   Biso      1.000     C          -0.125625           
         C74       1.0000    0.14341   0.82528   0.42529   Biso      1.000     C          -0.077372           
         C75       1.0000    0.04984   0.24516   0.16900   Biso      1.000     C          -0.253027           
         C76       1.0000    0.21498   0.81915   0.46924   Biso      1.000     C          0.1778    
         C77       1.0000    0.96436   0.31089   0.19421   Biso      1.000     C          0.258481  
         C78       1.0000    0.27054   0.73469   0.48783   Biso      1.000     C          -0.197018           
         C79       1.0000    0.92138   0.32654   0.27193   Biso      1.000     C          -0.209136           
         C80       1.0000    0.32114   0.75329   0.53832   Biso      1.000     C          -0.184983           
         C81       1.0000    0.96164   0.27521   0.32627   Biso      1.000     C          -0.110265           
         C82       1.0000    0.25951   0.51733   0.15170   Biso      1.000     C          0.621378  
         C83       1.0000    0.26734   0.22179   0.54402   Biso      1.000     C          -0.084916           
         C84       1.0000    0.30019   0.84987   0.54952   Biso      1.000     C          0.170246  
         C85       1.0000    0.28530   0.13617   0.58137   Biso      1.000     C          0.182079  
         C86       1.0000    0.31930   0.12552   0.65053   Biso      1.000     C          -0.195977           
         C87       1.0000    0.33459   0.89391   0.60072   Biso      1.000     C          -0.073568           
         C88       1.0000    0.00225   0.01117   0.34756   Biso      1.000     C          -0.198018           
         C89       1.0000    0.59261   0.68464   0.43013   Biso      1.000     C          -0.114996           
         C90       1.0000    0.01473   0.92017   0.36657   Biso      1.000     C          -0.188527           
         C91       1.0000    0.16914   0.29414   0.38398   Biso      1.000     C          -0.201441           
         C92       1.0000    0.22751   0.22828   0.48168   Biso      1.000     C          0.17698   
         C93       1.0000    0.13917   0.50259   0.20684   Biso      1.000     C          -0.19208  
         C94       1.0000    0.21777   0.31363   0.43553   Biso      1.000     C          -0.187577           
         C95       1.0000    0.08934   0.65745   0.43516   Biso      1.000     C          -0.126158           
         C96       1.0000    0.08727   0.57952   0.40015   Biso      1.000     C          -0.217215           
         C97       1.0000    0.12142   0.58185   0.31803   Biso      1.000     C          0.269617  
         C98       1.0000    0.07212   0.05812   0.37670   Biso      1.000     C          0.180663  
         C99       1.0000    0.15225   0.66505   0.27282   Biso      1.000     C          -0.240859           
         C100      1.0000    0.14830   0.19664   0.39810   Biso      1.000     C          0.164417  
         C101      1.0000    0.33983   0.03413   0.66472   Biso      1.000     C          -0.190837           
         C102      1.0000    0.08994   0.15206   0.36168   Biso      1.000     C          -0.084366           
         C103      1.0000    0.12658   0.74104   0.39058   Biso      1.000     C          0.076994  
         C104      1.0000    0.15463   0.74313   0.30980   Biso      1.000     C          -0.118785           
         H1        1.0000    0.82870   0.33110   0.78190   Biso      1.000     H          0.130204  
         H2        1.0000    0.75010   0.23290   0.28230   Biso      1.000     H          0.10718   
         H3        1.0000    0.63590   0.99390   0.29480   Biso      1.000     H          0.133308  
         H4        1.0000    0.44480   0.46160   0.42090   Biso      1.000     H          0.114764  
         H5        1.0000    0.67430   0.82740   0.32050   Biso      1.000     H          0.136051  
         H6        1.0000    0.67870   0.31140   0.19070   Biso      1.000     H          0.134055  
         H7        1.0000    0.95610   0.03870   0.32020   Biso      1.000     H          0.136119  
         H8        1.0000    0.36220   0.71120   0.56170   Biso      1.000     H          0.126903  
         H9        1.0000    0.88520   0.55540   0.80300   Biso      1.000     H          0.121194  
         H10       1.0000    0.90870   0.44770   0.80660   Biso      1.000     H          0.110327  
         H11       1.0000    0.97830   0.87260   0.35570   Biso      1.000     H          0.132995  
         H12       1.0000    0.27140   0.67770   0.46860   Biso      1.000     H          0.130615  
         H13       1.0000    0.24070   0.37160   0.44030   Biso      1.000     H          0.130543  
         H14       1.0000    0.06840   0.71360   0.62070   Biso      1.000     H          0.110355  
         H15       1.0000    0.82400   0.20090   0.72120   Biso      1.000     H          0.113008  
         H16       1.0000    0.93470   0.34540   0.50990   Biso      1.000     H          0.108881  
         H17       1.0000    0.35500   0.49680   0.27200   Biso      1.000     H          0.414337  
         H18       1.0000    0.13530   0.62800   0.71150   Biso      1.000     H          0.135704  
         H19       1.0000    0.93720   0.47570   0.56860   Biso      1.000     H          0.131052  
         H20       1.0000    0.15220   0.33600   0.34630   Biso      1.000     H          0.12751   
         H21       1.0000    0.97600   0.61050   0.96030   Biso      1.000     H          0.112225  
         H22       1.0000    0.91900   0.76420   0.88440   Biso      1.000     H          0.117096  
         H23       1.0000    0.03020   0.70870   0.94470   Biso      1.000     H          0.120695  
         H24       1.0000    0.85440   0.85240   0.79260   Biso      1.000     H          0.113524  
         H25       1.0000    0.38340   0.19140   0.30160   Biso      1.000     H          0.121536  
         H26       1.0000    0.15340   0.56170   0.05540   Biso      1.000     H          0.409405  
         H27       1.0000    0.48630   0.60290   0.40810   Biso      1.000     H          0.126762  
         H28       1.0000    0.36410   0.00610   0.70520   Biso      1.000     H          0.133308  
         H29       1.0000    0.20640   0.51260   0.62030   Biso      1.000     H          0.132055  
         H30       1.0000    0.84660   0.43830   0.94460   Biso      1.000     H          0.409405  
         H31       1.0000    0.15200   0.37970   0.58770   Biso      1.000     H          0.111568  
         H32       1.0000    0.84800   0.62030   0.41230   Biso      1.000     H          0.111567  
         H33       1.0000    0.69230   0.69060   0.97070   Biso      1.000     H          0.424936  
         H34       1.0000    0.17600   0.79910   0.27880   Biso      1.000     H          0.113007  
         H35       1.0000    0.79360   0.48740   0.37970   Biso      1.000     H          0.132055  
         H36       1.0000    0.67170   0.70290   0.79300   Biso      1.000     H          0.134355  
         H37       1.0000    0.54140   0.73460   0.44330   Biso      1.000     H          0.108012  
         H38       1.0000    0.60420   0.79170   0.82980   Biso      1.000     H          0.127804  
         H39       1.0000    0.54320   0.88780   0.60730   Biso      1.000     H          0.112147  
         H40       1.0000    0.61660   0.80860   0.69840   Biso      1.000     H          0.121536  
         H41       1.0000    0.06280   0.52430   0.43140   Biso      1.000     H          0.131052  
         H42       1.0000    0.32130   0.68860   0.80930   Biso      1.000     H          0.134055  
         H43       1.0000    0.24990   0.76710   0.71770   Biso      1.000     H          0.107181  
         H44       1.0000    0.06530   0.65460   0.49010   Biso      1.000     H          0.108881  
         H45       1.0000    0.09130   0.55230   0.19340   Biso      1.000     H          0.110328  
         H46       1.0000    0.11480   0.44460   0.19700   Biso      1.000     H          0.121194  
         H47       1.0000    0.17130   0.66890   0.21810   Biso      1.000     H          0.130204  
         H48       1.0000    0.51370   0.39710   0.59190   Biso      1.000     H          0.126762  
         H49       1.0000    0.45860   0.26540   0.55670   Biso      1.000     H          0.108013  
         H50       1.0000    0.51480   0.63040   0.62020   Biso      1.000     H          0.13971   
         H51       1.0000    0.63780   0.28880   0.43830   Biso      1.000     H          0.126905  
         H52       1.0000    0.72860   0.32230   0.53140   Biso      1.000     H          0.130614  
         H53       1.0000    0.32570   0.17260   0.67950   Biso      1.000     H          0.136051  
         H54       1.0000    0.48520   0.36960   0.37980   Biso      1.000     H          0.13971   
         H55       1.0000    0.02170   0.12740   0.64430   Biso      1.000     H          0.132997  
         H56       1.0000    0.04390   0.96130   0.67980   Biso      1.000     H          0.136117  
         H57       1.0000    0.93160   0.28640   0.37930   Biso      1.000     H          0.110355  
         H58       1.0000    0.86470   0.37200   0.28850   Biso      1.000     H          0.135704  
         H59       1.0000    0.39580   0.20830   0.17020   Biso      1.000     H          0.127803  
         H60       1.0000    0.84780   0.66400   0.65370   Biso      1.000     H          0.12751   
         H61       1.0000    0.75930   0.62840   0.55970   Biso      1.000     H          0.130543  
         H62       1.0000    0.08100   0.23580   0.11560   Biso      1.000     H          0.117096  
         H63       1.0000    0.32830   0.29710   0.20700   Biso      1.000     H          0.134355  
         H64       1.0000    0.14560   0.14760   0.20740   Biso      1.000     H          0.113524  
         H65       1.0000    0.30770   0.30940   0.02930   Biso      1.000     H          0.424936  
         H66       1.0000    0.64500   0.50320   0.72800   Biso      1.000     H          0.414337  
         H67       1.0000    0.96980   0.29130   0.05530   Biso      1.000     H          0.120695  
         H68       1.0000    0.02400   0.38950   0.03970   Biso      1.000     H          0.112225  
         H69       1.0000    0.55520   0.53840   0.57910   Biso      1.000     H          0.114764  
         H70       1.0000    0.45680   0.11220   0.39270   Biso      1.000     H          0.112147  
         K1        1.0000    0.42860   0.50226   0.91774   Biso      1.000     K          0.857176  
         K2        1.0000    0.57140   0.49774   0.08226   Biso      1.000     K          0.857176  
         N1        1.0000    0.18841   0.15573   0.45665   Biso      1.000     N          -0.299224           
         N2        1.0000    0.27865   0.05143   0.55749   Biso      1.000     N          -0.298656           
         N3        1.0000    0.23749   0.89091   0.50422   Biso      1.000     N          -0.298928           
         N4        1.0000    0.12577   0.99565   0.41707   Biso      1.000     N          -0.297172           
         N5        1.0000    0.72135   0.94857   0.44251   Biso      1.000     N          -0.298656           
         N6        1.0000    0.76251   0.10909   0.49578   Biso      1.000     N          -0.298928           
         N7        1.0000    0.87423   0.00435   0.58293   Biso      1.000     N          -0.297171           
         N8        1.0000    0.81159   0.84427   0.54335   Biso      1.000     N          -0.299224           
         Ni1       1.0000    0.20734   0.02331   0.48400   Biso      1.000     Ni          0.385951  
         Ni2       1.0000    0.79266   0.97669   0.51600   Biso      1.000     Ni          0.385951  
         O1        1.0000    0.60955   0.44847   0.37178   Biso      1.000     O          -0.182284           
         O2        1.0000    0.36724   0.47470   0.31227   Biso      1.000     O          -0.533357           
         O3        1.0000    0.91487   0.36451   0.14675   Biso      1.000     O          -0.174577           
         O4        1.0000    0.76949   0.40924   0.07563   Biso      1.000     O          -0.531927           
         O5        1.0000    0.89885   0.41701   0.95912   Biso      1.000     O          -0.540353           
         O6        1.0000    0.12146   0.49969   0.28842   Biso      1.000     O          -0.174679           
         O7        1.0000    0.33859   0.51024   0.17752   Biso      1.000     O          -0.633967           
         O8        1.0000    0.27041   0.53415   0.08002   Biso      1.000     O          -0.671398           
         O9        1.0000    0.50777   0.69511   0.82346   Biso      1.000     O          -0.203098           
         O10       1.0000    0.66141   0.48976   0.82248   Biso      1.000     O          -0.633967           
         O11       1.0000    0.53831   0.63361   0.96014   Biso      1.000     O          -0.555913           
         O12       1.0000    0.72959   0.46585   0.91998   Biso      1.000     O          -0.671398           
         O13       1.0000    0.63276   0.52530   0.68773   Biso      1.000     O          -0.533357           
         O14       1.0000    0.46169   0.36639   0.03986   Biso      1.000     O          -0.555913           
         O15       1.0000    0.45627   0.48677   0.75671   Biso      1.000     O          -0.532297           
         O16       1.0000    0.30703   0.28821   0.07354   Biso      1.000     O          -0.524403           
         O17       1.0000    0.49223   0.30489   0.17654   Biso      1.000     O          -0.203098           
         O18       1.0000    0.54373   0.51323   0.24329   Biso      1.000     O          -0.532297           
         O19       1.0000    0.08513   0.63549   0.85325   Biso      1.000     O          -0.174578           
         O20       1.0000    0.23051   0.59076   0.92437   Biso      1.000     O          -0.531927           
         O21       1.0000    0.10115   0.58299   0.04088   Biso      1.000     O          -0.540353           
         O22       1.0000    0.87854   0.50031   0.71158   Biso      1.000     O          -0.174679           
         O23       1.0000    0.69297   0.71179   0.92646   Biso      1.000     O          -0.524403           
         O24       1.0000    0.39045   0.55153   0.62822   Biso      1.000     O          -0.182284 