
##########################################################################
#               Crystallographic Information Format file
#               Produced by PyCifRW module
#
#  This is a CIF file.  CIF has been adopted by the International
#  Union of Crystallography as the standard for data archiving and
#  transmission.
#
#  For information on this file format, follow the CIF links at
#  http://www.iucr.org
##########################################################################

data_image0

_cell_length_a                          10.058
_cell_length_b                          16.679
_cell_length_c                          18.5271
_cell_angle_alpha                       106.227
_cell_angle_beta                        105.75
_cell_angle_gamma                       90
_symmetry_space_group_name_H-M          'P 1'
_symmetry_int_tables_number             1
loop_
  _symmetry_equiv_pos_as_xyz
         'x, y, z' 
loop_
  _atom_site_label
  _atom_site_occupancy
  _atom_site_fract_x
  _atom_site_fract_y
  _atom_site_fract_z
  _atom_site_thermal_displace_type
  _atom_site_B_iso_or_equiv
  _atom_site_type_symbol
  _atom_site_charge
         C1        1.0000    0.66470   0.39840   0.75400   Biso      1.000     C          0.078269  
         C2        1.0000    0.31040   0.83150   0.16540   Biso      1.000     C          -0.026892           
         C3        1.0000    0.26320   0.79780   0.22220   Biso      1.000     C          0.574082  
         C4        1.0000    0.35190   0.62440   0.94800   Biso      1.000     C          0.156869  
         C5        1.0000    0.22310   0.64160   0.96160   Biso      1.000     C          -0.224174           
         C6        1.0000    0.12440   0.66510   0.90420   Biso      1.000     C          -0.119145           
         C7        1.0000    0.55920   0.61740   0.81160   Biso      1.000     C          -0.061084           
         C8        1.0000    0.64380   0.54530   0.79180   Biso      1.000     C          0.16081   
         C9        1.0000    0.78080   0.55430   0.78980   Biso      1.000     C          -0.189394           
         C10       1.0000    0.85150   0.48580   0.76880   Biso      1.000     C          0.100442  
         C11       1.0000    0.58930   0.46470   0.77360   Biso      1.000     C          -0.1877   
         C12       1.0000    0.46700   0.62870   0.08080   Biso      1.000     C          -0.070003           
         C13       1.0000    0.45290   0.85350   0.17860   Biso      1.000     C          -0.24535  
         C14       1.0000    0.61650   0.64240   0.13140   Biso      1.000     C          0.16231   
         C15       1.0000    0.78160   0.69540   0.25660   Biso      1.000     C          0.105095  
         C16       1.0000    0.85710   0.63900   0.14840   Biso      1.000     C          0.083714  
         C17       1.0000    0.72580   0.62050   0.10120   Biso      1.000     C          -0.185298           
         C18       1.0000    0.21260   0.49890   0.57740   Biso      1.000     C          0.592335  
         C19       1.0000    0.35650   0.47530   0.58040   Biso      1.000     C          -0.021757           
         C20       1.0000    0.46150   0.53770   0.59720   Biso      1.000     C          -0.130442           
         C21       1.0000    0.59890   0.51710   0.59920   Biso      1.000     C          -0.03732  
         C22       1.0000    0.62760   0.43420   0.58480   Biso      1.000     C          -0.117233           
         C23       1.0000    0.52640   0.37180   0.57140   Biso      1.000     C          -0.022464           
         C24       1.0000    0.38940   0.39350   0.56840   Biso      1.000     C          -0.11957  
         C25       1.0000    0.70950   0.58620   0.61600   Biso      1.000     C          0.601179  
         C26       1.0000    0.64450   0.68120   0.20940   Biso      1.000     C          -0.199941           
         C27       1.0000    0.55890   0.28350   0.56760   Biso      1.000     C          0.581289  
         C28       1.0000    0.49700   0.87410   0.12120   Biso      1.000     C          0.156524  
         C29       1.0000    0.26150   0.85840   0.03840   Biso      1.000     C          -0.221259           
         C30       1.0000    0.14500   0.66850   0.83460   Biso      1.000     C          -0.029919           
         C31       1.0000    0.04100   0.70220   0.77780   Biso      1.000     C          0.573797  
         C32       1.0000    0.99130   0.21650   0.43240   Biso      1.000     C          0.581873  
         C33       1.0000    0.09350   0.91380   0.38400   Biso      1.000     C          0.603587  
         C34       1.0000    0.82100   0.10650   0.43160   Biso      1.000     C          -0.121369           
         C35       1.0000    0.95500   0.12820   0.42860   Biso      1.000     C          -0.019745           
         C36       1.0000    0.04280   0.06580   0.41520   Biso      1.000     C          -0.118558           
         C37       1.0000    0.99970   0.98290   0.40080   Biso      1.000     C          -0.036309           
         C38       1.0000    0.86430   0.96230   0.40280   Biso      1.000     C          -0.131069           
         C39       1.0000    0.77610   0.02470   0.41960   Biso      1.000     C          -0.021908           
         C40       1.0000    0.63520   0.00110   0.42260   Biso      1.000     C          0.591277  
         C41       1.0000    0.40390   0.87560   0.05200   Biso      1.000     C          0.157542  
         C42       1.0000    0.62460   0.87950   0.89880   Biso      1.000     C          -0.189103           
         C43       1.0000    0.52500   0.80460   0.74340   Biso      1.000     C          0.102465  
         C44       1.0000    0.43510   0.81880   0.79060   Biso      1.000     C          -0.19838  
         C45       1.0000    0.48510   0.85760   0.86860   Biso      1.000     C          0.164144  
         C46       1.0000    0.38620   0.87130   0.91920   Biso      1.000     C          -0.068405           
         C47       1.0000    0.81570   0.03530   0.22640   Biso      1.000     C          -0.19051  
         C48       1.0000    0.91070   0.10160   0.24600   Biso      1.000     C          0.075242  
         C49       1.0000    0.08270   0.01420   0.23120   Biso      1.000     C          0.099298  
         C50       1.0000    0.99100   0.94570   0.21020   Biso      1.000     C          -0.187237           
         C51       1.0000    0.85200   0.95470   0.20820   Biso      1.000     C          0.161366  
         C52       1.0000    0.74760   0.88260   0.18840   Biso      1.000     C          -0.061206           
         C53       1.0000    0.22020   0.83490   0.09580   Biso      1.000     C          -0.124099           
         C54       1.0000    0.70870   0.86100   0.85160   Biso      1.000     C          0.084619  
         C55       1.0000    0.73680   0.20220   0.77780   Biso      1.000     C          0.574082  
         C56       1.0000    0.68960   0.16850   0.83460   Biso      1.000     C          -0.026891           
         C57       1.0000    0.54710   0.14650   0.82140   Biso      1.000     C          -0.24535  
         C58       1.0000    0.64810   0.37560   0.05200   Biso      1.000     C          0.156869  
         C59       1.0000    0.77690   0.35840   0.03840   Biso      1.000     C          -0.224174           
         C60       1.0000    0.87560   0.33490   0.09580   Biso      1.000     C          -0.119145           
         C61       1.0000    0.44080   0.38260   0.18840   Biso      1.000     C          -0.061084           
         C62       1.0000    0.35620   0.45470   0.20820   Biso      1.000     C          0.16081   
         C63       1.0000    0.21920   0.44570   0.21020   Biso      1.000     C          -0.189394           
         C64       1.0000    0.14850   0.51420   0.23120   Biso      1.000     C          0.100442  
         C65       1.0000    0.33530   0.60160   0.24600   Biso      1.000     C          0.078269  
         C66       1.0000    0.41070   0.53530   0.22640   Biso      1.000     C          -0.1877   
         C67       1.0000    0.53300   0.37130   0.91920   Biso      1.000     C          -0.070003           
         C68       1.0000    0.38350   0.35760   0.86860   Biso      1.000     C          0.16231   
         C69       1.0000    0.62420   0.37410   0.12120   Biso      1.000     C          0.15679   
         C70       1.0000    0.35550   0.31880   0.79060   Biso      1.000     C          -0.19994  
         C71       1.0000    0.14290   0.36100   0.85160   Biso      1.000     C          0.083714  
         C72       1.0000    0.27420   0.37950   0.89880   Biso      1.000     C          -0.185298           
         C73       1.0000    0.78740   0.50110   0.42260   Biso      1.000     C          0.592335  
         C74       1.0000    0.64350   0.52470   0.41960   Biso      1.000     C          -0.021757           
         C75       1.0000    0.53850   0.46230   0.40280   Biso      1.000     C          -0.130442           
         C76       1.0000    0.40110   0.48290   0.40080   Biso      1.000     C          -0.03732  
         C77       1.0000    0.37240   0.56580   0.41520   Biso      1.000     C          -0.117233           
         C78       1.0000    0.47360   0.62820   0.42860   Biso      1.000     C          -0.022464           
         C79       1.0000    0.61060   0.60650   0.43160   Biso      1.000     C          -0.11957  
         C80       1.0000    0.29050   0.41380   0.38400   Biso      1.000     C          0.601179  
         C81       1.0000    0.44110   0.71650   0.43240   Biso      1.000     C          0.581289  
         C82       1.0000    0.21840   0.30460   0.74340   Biso      1.000     C          0.105095  
         C83       1.0000    0.72570   0.35350   0.17860   Biso      1.000     C          -0.245073           
         C84       1.0000    0.85500   0.33150   0.16540   Biso      1.000     C          -0.029919           
         C85       1.0000    0.95900   0.29780   0.22220   Biso      1.000     C          0.573797  
         C86       1.0000    0.50300   0.12590   0.87880   Biso      1.000     C          0.156524  
         C87       1.0000    0.59610   0.12440   0.94800   Biso      1.000     C          0.157542  
         C88       1.0000    0.73850   0.14160   0.96160   Biso      1.000     C          -0.221258           
         C89       1.0000    0.77980   0.16510   0.90420   Biso      1.000     C          -0.1241   
         C90       1.0000    0.25240   0.11740   0.81160   Biso      1.000     C          -0.061206           
         C91       1.0000    0.14800   0.04530   0.79180   Biso      1.000     C          0.16136   
         C92       1.0000    0.00900   0.05430   0.78980   Biso      1.000     C          -0.187244           
         C93       1.0000    0.91730   0.98580   0.76880   Biso      1.000     C          0.099306  
         C94       1.0000    0.08930   0.89840   0.75400   Biso      1.000     C          0.075229  
         C95       1.0000    0.18430   0.96470   0.77360   Biso      1.000     C          -0.190492           
         C96       1.0000    0.61380   0.12870   0.08080   Biso      1.000     C          -0.068404           
         C97       1.0000    0.51490   0.14240   0.13140   Biso      1.000     C          0.164127  
         C98       1.0000    0.56490   0.18120   0.20940   Biso      1.000     C          -0.198367           
         C99       1.0000    0.47500   0.19540   0.25660   Biso      1.000     C          0.102463  
         C100      1.0000    0.29130   0.13900   0.14840   Biso      1.000     C          0.084608  
         C101      1.0000    0.37540   0.12050   0.10120   Biso      1.000     C          -0.189086           
         C102      1.0000    0.36480   0.99890   0.57740   Biso      1.000     C          0.591278  
         C103      1.0000    0.22390   0.97530   0.58040   Biso      1.000     C          -0.021911           
         C104      1.0000    0.13570   0.03770   0.59720   Biso      1.000     C          -0.131068           
         C105      1.0000    0.00030   0.01710   0.59920   Biso      1.000     C          -0.036313           
         C106      1.0000    0.95720   0.93420   0.58480   Biso      1.000     C          -0.118556           
         C107      1.0000    0.04500   0.87180   0.57140   Biso      1.000     C          -0.019744           
         C108      1.0000    0.17900   0.89350   0.56840   Biso      1.000     C          -0.121367           
         C109      1.0000    0.90650   0.08620   0.61600   Biso      1.000     C          0.603587  
         C110      1.0000    0.00870   0.78350   0.56760   Biso      1.000     C          0.581873  
         C111      1.0000    0.27430   0.64650   0.82140   Biso      1.000     C          -0.245076           
         C112      1.0000    0.37580   0.62590   0.87880   Biso      1.000     C          0.156793  
         Cd1       1.0000    0.41094   0.87757   0.41838   Biso      1.000     Cd          1.067933  
         Cd2       1.0000    0.81234   0.78206   0.69376   Biso      1.000     Cd          0.9205    
         Cd3       1.0000    0.99256   0.62243   0.58162   Biso      1.000     Cd          1.067936  
         Cd4       1.0000    0.11858   0.71794   0.30624   Biso      1.000     Cd          0.920736  
         Cd5       1.0000    0.58906   0.12243   0.58162   Biso      1.000     Cd          1.067933  
         Cd6       1.0000    0.18766   0.21794   0.30624   Biso      1.000     Cd          0.9205    
         Cd7       1.0000    0.00744   0.37757   0.41838   Biso      1.000     Cd          1.067936  
         Cd8       1.0000    0.88142   0.28206   0.69376   Biso      1.000     Cd          0.920736  
         H1        1.0000    0.28310   0.57990   0.41560   Biso      1.000     H          0.127846  
         H2        1.0000    0.76190   0.14850   0.44160   Biso      1.000     H          0.12628   
         H3        1.0000    0.29070   0.64590   0.77420   Biso      1.000     H          0.140402  
         H4        1.0000    0.20450   0.63760   0.00700   Biso      1.000     H          0.138866  
         H5        1.0000    0.03970   0.67930   0.91320   Biso      1.000     H          0.111664  
         H6        1.0000    0.61580   0.67000   0.82860   Biso      1.000     H          0.105117  
         H7        1.0000    0.48300   0.61730   0.76640   Biso      1.000     H          0.112839  
         H8        1.0000    0.49880   0.45490   0.77440   Biso      1.000     H          0.119724  
         H9        1.0000    0.94090   0.49370   0.76540   Biso      1.000     H          0.096866  
         H10       1.0000    0.62340   0.34440   0.74080   Biso      1.000     H          0.092566  
         H11       1.0000    0.13250   0.07990   0.41560   Biso      1.000     H          0.12814   
         H12       1.0000    0.41800   0.58510   0.09140   Biso      1.000     H          0.102037  
         H13       1.0000    0.42120   0.67980   0.09300   Biso      1.000     H          0.096921  
         H14       1.0000    0.57260   0.69820   0.23140   Biso      1.000     H          0.140086  
         H15       1.0000    0.82430   0.60760   0.80280   Biso      1.000     H          0.129337  
         H16       1.0000    0.83430   0.90650   0.39300   Biso      1.000     H          0.121009  
         H17       1.0000    0.34120   0.80180   0.76860   Biso      1.000     H          0.139883  
         H18       1.0000    0.80360   0.87360   0.87380   Biso      1.000     H          0.098097  
         H19       1.0000    0.48880   0.78020   0.68960   Biso      1.000     H          0.115353  
         H20       1.0000    0.79920   0.71980   0.31040   Biso      1.000     H          0.114998  
         H21       1.0000    0.32820   0.82020   0.90700   Biso      1.000     H          0.096727  
         H22       1.0000    0.32660   0.91490   0.90860   Biso      1.000     H          0.101626  
         H23       1.0000    0.67970   0.64850   0.44160   Biso      1.000     H          0.126594  
         H24       1.0000    0.88260   0.15560   0.25920   Biso      1.000     H          0.093465  
         H25       1.0000    0.17550   0.00630   0.23460   Biso      1.000     H          0.097313  
         H26       1.0000    0.02150   0.89240   0.19720   Biso      1.000     H          0.128525  
         H27       1.0000    0.71660   0.88270   0.23360   Biso      1.000     H          0.111501  
         H28       1.0000    0.78720   0.83000   0.17140   Biso      1.000     H          0.105357  
         H29       1.0000    0.12650   0.82070   0.08680   Biso      1.000     H          0.114082  
         H30       1.0000    0.19750   0.86240   0.99300   Biso      1.000     H          0.137964  
         H31       1.0000    0.51650   0.85410   0.22580   Biso      1.000     H          0.139482  
         H32       1.0000    0.66150   0.90700   0.95200   Biso      1.000     H          0.137138  
         H33       1.0000    0.92980   0.62640   0.12620   Biso      1.000     H          0.098332  
         H34       1.0000    0.72440   0.04510   0.22560   Biso      1.000     H          0.121705  
         H35       1.0000    0.44130   0.59350   0.60700   Biso      1.000     H          0.12119   
         H36       1.0000    0.79550   0.36240   0.99300   Biso      1.000     H          0.138866  
         H37       1.0000    0.96030   0.32070   0.08680   Biso      1.000     H          0.111664  
         H38       1.0000    0.38420   0.33000   0.17140   Biso      1.000     H          0.105117  
         H39       1.0000    0.51700   0.38270   0.23360   Biso      1.000     H          0.112839  
         H40       1.0000    0.17570   0.39240   0.19720   Biso      1.000     H          0.129337  
         H41       1.0000    0.05910   0.50630   0.23460   Biso      1.000     H          0.096866  
         H42       1.0000    0.37660   0.65560   0.25920   Biso      1.000     H          0.092566  
         H43       1.0000    0.50120   0.54510   0.22560   Biso      1.000     H          0.119724  
         H44       1.0000    0.58200   0.41490   0.90860   Biso      1.000     H          0.102037  
         H45       1.0000    0.57880   0.32020   0.90700   Biso      1.000     H          0.096921  
         H46       1.0000    0.42740   0.30180   0.76860   Biso      1.000     H          0.140086  
         H47       1.0000    0.20080   0.28020   0.68960   Biso      1.000     H          0.114998  
         H48       1.0000    0.07020   0.37360   0.87380   Biso      1.000     H          0.098332  
         H49       1.0000    0.29050   0.40700   0.95200   Biso      1.000     H          0.136494  
         H50       1.0000    0.55870   0.40650   0.39300   Biso      1.000     H          0.12119   
         H51       1.0000    0.70930   0.35410   0.22580   Biso      1.000     H          0.140401  
         H52       1.0000    0.86750   0.92010   0.58440   Biso      1.000     H          0.128139  
         H53       1.0000    0.23810   0.85150   0.55840   Biso      1.000     H          0.12628   
         H54       1.0000    0.33850   0.09300   0.04800   Biso      1.000     H          0.137137  
         H55       1.0000    0.71690   0.42010   0.58440   Biso      1.000     H          0.127846  
         H56       1.0000    0.32030   0.35150   0.55840   Biso      1.000     H          0.126594  
         H57       1.0000    0.48350   0.14590   0.77420   Biso      1.000     H          0.139482  
         H58       1.0000    0.80250   0.13760   0.00700   Biso      1.000     H          0.137964  
         H59       1.0000    0.87350   0.17930   0.91320   Biso      1.000     H          0.114082  
         H60       1.0000    0.21280   0.17000   0.82860   Biso      1.000     H          0.105357  
         H61       1.0000    0.28340   0.11730   0.76640   Biso      1.000     H          0.111501  
         H62       1.0000    0.16570   0.09350   0.60700   Biso      1.000     H          0.121009  
         H63       1.0000    0.97850   0.10760   0.80280   Biso      1.000     H          0.128525  
         H64       1.0000    0.11740   0.84440   0.74080   Biso      1.000     H          0.093466  
         H65       1.0000    0.27560   0.95490   0.77440   Biso      1.000     H          0.121704  
         H66       1.0000    0.67340   0.08510   0.09140   Biso      1.000     H          0.101626  
         H67       1.0000    0.67180   0.17980   0.09300   Biso      1.000     H          0.096727  
         H68       1.0000    0.65880   0.19820   0.23140   Biso      1.000     H          0.139883  
         H69       1.0000    0.51120   0.21980   0.31040   Biso      1.000     H          0.115354  
         H70       1.0000    0.19640   0.12640   0.12620   Biso      1.000     H          0.098098  
         H71       1.0000    0.82450   0.99370   0.76540   Biso      1.000     H          0.097312  
         H72       1.0000    0.70950   0.59300   0.04800   Biso      1.000     H          0.136494  
         N1        1.0000    0.20350   0.59170   0.24680   Biso      1.000     N          -0.252528           
         N2        1.0000    0.95670   0.90830   0.75320   Biso      1.000     N          -0.250327           
         N3        1.0000    0.11220   0.32490   0.77300   Biso      1.000     N          -0.246139           
         N4        1.0000    0.33920   0.17510   0.22700   Biso      1.000     N          -0.244916           
         N5        1.0000    0.88780   0.67510   0.22700   Biso      1.000     N          -0.246139           
         N6        1.0000    0.04330   0.09170   0.24680   Biso      1.000     N          -0.250328           
         N7        1.0000    0.66080   0.82490   0.77300   Biso      1.000     N          -0.244918           
         N8        1.0000    0.79650   0.40830   0.75320   Biso      1.000     N          -0.252528           
         O1        1.0000    0.64700   0.20240   0.71480   Biso      1.000     O          -0.602563           
         O2        1.0000    0.86030   0.23200   0.79720   Biso      1.000     O          -0.574719           
         O3        1.0000    0.36560   0.10670   0.87360   Biso      1.000     O          -0.204975           
         O4        1.0000    0.53730   0.10510   0.00160   Biso      1.000     O          -0.186566           
         O5        1.0000    0.40670   0.07510   0.60500   Biso      1.000     O          -0.54903  
         O6        1.0000    0.43820   0.94300   0.55040   Biso      1.000     O          -0.610421           
         O7        1.0000    0.95280   0.15990   0.63580   Biso      1.000     O          -0.549835           
         O8        1.0000    0.78180   0.06150   0.60760   Biso      1.000     O          -0.588361           
         O9        1.0000    0.08890   0.72820   0.55060   Biso      1.000     O          -0.521968           
         O10       1.0000    0.93220   0.29760   0.28520   Biso      1.000     O          -0.601122           
         O11       1.0000    0.06310   0.26800   0.20280   Biso      1.000     O          -0.57562  
         O12       1.0000    0.49200   0.39330   0.12640   Biso      1.000     O          -0.205059           
         O13       1.0000    0.53570   0.39490   0.99840   Biso      1.000     O          -0.185153           
         O14       1.0000    0.80170   0.42490   0.39500   Biso      1.000     O          -0.549754           
         O15       1.0000    0.88780   0.55700   0.44960   Biso      1.000     O          -0.610703           
         O16       1.0000    0.31700   0.34010   0.36420   Biso      1.000     O          -0.549184           
         O17       1.0000    0.17420   0.43850   0.39240   Biso      1.000     O          -0.587204           
         O18       1.0000    0.89840   0.76400   0.58180   Biso      1.000     O          -0.608884           
         O19       1.0000    0.46170   0.22820   0.55060   Biso      1.000     O          -0.521888           
         O20       1.0000    0.82580   0.56150   0.60760   Biso      1.000     O          -0.587204           
         O21       1.0000    0.68300   0.65990   0.63580   Biso      1.000     O          -0.549184           
         O22       1.0000    0.31660   0.73600   0.41820   Biso      1.000     O          -0.608711           
         O23       1.0000    0.35300   0.79760   0.28520   Biso      1.000     O          -0.602563           
         O24       1.0000    0.13970   0.76800   0.20280   Biso      1.000     O          -0.574719           
         O25       1.0000    0.63440   0.89330   0.12640   Biso      1.000     O          -0.204974           
         O26       1.0000    0.46270   0.89490   0.99840   Biso      1.000     O          -0.186566           
         O27       1.0000    0.59330   0.92490   0.39500   Biso      1.000     O          -0.54903  
         O28       1.0000    0.56180   0.05700   0.44960   Biso      1.000     O          -0.610421           
         O29       1.0000    0.04720   0.84010   0.36420   Biso      1.000     O          -0.549835           
         O30       1.0000    0.21820   0.93850   0.39240   Biso      1.000     O          -0.588361           
         O31       1.0000    0.10160   0.23600   0.41820   Biso      1.000     O          -0.608884           
         O32       1.0000    0.91110   0.27180   0.44940   Biso      1.000     O          -0.521968           
         O33       1.0000    0.06780   0.70240   0.71480   Biso      1.000     O          -0.601122           
         O34       1.0000    0.93690   0.73200   0.79720   Biso      1.000     O          -0.57562  
         O35       1.0000    0.50800   0.60670   0.87360   Biso      1.000     O          -0.205059           
         O36       1.0000    0.46430   0.60510   0.00160   Biso      1.000     O          -0.185153           
         O37       1.0000    0.19830   0.57510   0.60500   Biso      1.000     O          -0.549754           
         O38       1.0000    0.11220   0.44300   0.55040   Biso      1.000     O          -0.610703           
         O39       1.0000    0.68340   0.26400   0.58180   Biso      1.000     O          -0.608711           
         O40       1.0000    0.53830   0.77180   0.44940   Biso      1.000     O          -0.521888 