
##########################################################################
#               Crystallographic Information Format file
#               Produced by PyCifRW module
#
#  This is a CIF file.  CIF has been adopted by the International
#  Union of Crystallography as the standard for data archiving and
#  transmission.
#
#  For information on this file format, follow the CIF links at
#  http://www.iucr.org
##########################################################################

data_image0

_cell_length_a                          17.2544
_cell_length_b                          17.2544
_cell_length_c                          15.3517
_cell_angle_alpha                       90
_cell_angle_beta                        90
_cell_angle_gamma                       90
_symmetry_space_group_name_H-M          'P 1'
_symmetry_int_tables_number             1
loop_
  _symmetry_equiv_pos_as_xyz
         'x, y, z' 
loop_
  _atom_site_label
  _atom_site_occupancy
  _atom_site_fract_x
  _atom_site_fract_y
  _atom_site_fract_z
  _atom_site_thermal_displace_type
  _atom_site_B_iso_or_equiv
  _atom_site_type_symbol
  _atom_site_charge
         C1        1.0000    0.30520   0.56870   0.30130   Biso      1.000     C          0.581203  
         C2        1.0000    0.75560   0.88060   0.25340   Biso      1.000     C          -0.006648           
         C3        1.0000    0.80520   0.93130   0.19870   Biso      1.000     C          0.581203  
         C4        1.0000    0.29250   0.31580   0.50800   Biso      1.000     C          -0.552801           
         C5        1.0000    0.36910   0.31350   0.46640   Biso      1.000     C          0.389329  
         C6        1.0000    0.46390   0.28600   0.37970   Biso      1.000     C          0.382109  
         C7        1.0000    0.50910   0.25180   0.30570   Biso      1.000     C          -0.55067  
         C8        1.0000    0.23230   0.19910   0.25440   Biso      1.000     C          -0.110572           
         C9        1.0000    0.28070   0.24700   0.30370   Biso      1.000     C          -0.184997           
         C10       1.0000    0.33870   0.21680   0.35020   Biso      1.000     C          0.200804  
         C11       1.0000    0.35170   0.13790   0.35270   Biso      1.000     C          -0.193271           
         C12       1.0000    0.24440   0.11940   0.25340   Biso      1.000     C          -0.006648           
         C13       1.0000    0.19480   0.06870   0.19870   Biso      1.000     C          0.581202  
         C14       1.0000    0.18420   0.20750   0.00800   Biso      1.000     C          -0.552801           
         C15       1.0000    0.18650   0.13090   0.96640   Biso      1.000     C          0.38933   
         C16       1.0000    0.21400   0.03610   0.87970   Biso      1.000     C          0.382109  
         C17       1.0000    0.24820   0.99090   0.80570   Biso      1.000     C          -0.550671           
         C18       1.0000    0.30090   0.26770   0.75440   Biso      1.000     C          -0.110572           
         C19       1.0000    0.25300   0.21930   0.80370   Biso      1.000     C          -0.184998           
         C20       1.0000    0.28320   0.16130   0.85020   Biso      1.000     C          0.200804  
         C21       1.0000    0.36210   0.14830   0.85270   Biso      1.000     C          -0.193272           
         C22       1.0000    0.40890   0.19450   0.80170   Biso      1.000     C          -0.084674           
         C23       1.0000    0.38060   0.25560   0.75340   Biso      1.000     C          -0.006646           
         C24       1.0000    0.43130   0.30520   0.69870   Biso      1.000     C          0.581202  
         C25       1.0000    0.81580   0.79250   0.00800   Biso      1.000     C          -0.552801           
         C26       1.0000    0.81350   0.86910   0.96640   Biso      1.000     C          0.38933   
         C27       1.0000    0.78600   0.96390   0.87970   Biso      1.000     C          0.382109  
         C28       1.0000    0.75180   0.00910   0.80570   Biso      1.000     C          -0.55067  
         C29       1.0000    0.69450   0.90890   0.30170   Biso      1.000     C          -0.084682           
         C30       1.0000    0.69910   0.73230   0.75440   Biso      1.000     C          -0.110572           
         C31       1.0000    0.64830   0.86210   0.35270   Biso      1.000     C          -0.193264           
         C32       1.0000    0.71930   0.75300   0.30370   Biso      1.000     C          -0.184999           
         C33       1.0000    0.31580   0.70750   0.49200   Biso      1.000     C          -0.552801           
         C34       1.0000    0.31350   0.63090   0.53360   Biso      1.000     C          0.389329  
         C35       1.0000    0.28600   0.53610   0.62030   Biso      1.000     C          0.382109  
         C36       1.0000    0.25180   0.49090   0.69430   Biso      1.000     C          -0.55067  
         C37       1.0000    0.19910   0.76770   0.74560   Biso      1.000     C          -0.110573           
         C38       1.0000    0.24700   0.71930   0.69630   Biso      1.000     C          -0.184999           
         C39       1.0000    0.21680   0.66130   0.64980   Biso      1.000     C          0.200804  
         C40       1.0000    0.13790   0.64830   0.64730   Biso      1.000     C          -0.193272           
         C41       1.0000    0.09110   0.69450   0.69830   Biso      1.000     C          -0.084675           
         C42       1.0000    0.11940   0.75560   0.74660   Biso      1.000     C          -0.006647           
         C43       1.0000    0.06870   0.80520   0.80130   Biso      1.000     C          0.581202  
         C44       1.0000    0.68420   0.29250   0.49200   Biso      1.000     C          -0.552801           
         C45       1.0000    0.68650   0.36910   0.53360   Biso      1.000     C          0.389329  
         C46       1.0000    0.71400   0.46390   0.62030   Biso      1.000     C          0.382109  
         C47       1.0000    0.74820   0.50910   0.69430   Biso      1.000     C          -0.55067  
         C48       1.0000    0.80090   0.23230   0.74560   Biso      1.000     C          -0.110572           
         C49       1.0000    0.75300   0.28070   0.69630   Biso      1.000     C          -0.184998           
         C50       1.0000    0.78320   0.33870   0.64980   Biso      1.000     C          0.200804  
         C51       1.0000    0.86210   0.35170   0.64730   Biso      1.000     C          -0.193271           
         C52       1.0000    0.90890   0.30550   0.69830   Biso      1.000     C          -0.084673           
         C53       1.0000    0.88060   0.24440   0.74660   Biso      1.000     C          -0.006646           
         C54       1.0000    0.93130   0.19480   0.80130   Biso      1.000     C          0.581204  
         C55       1.0000    0.70750   0.68420   0.50800   Biso      1.000     C          -0.552801           
         C56       1.0000    0.63090   0.68650   0.46640   Biso      1.000     C          0.389329  
         C57       1.0000    0.53610   0.71400   0.37970   Biso      1.000     C          0.382109  
         C58       1.0000    0.49090   0.74820   0.30570   Biso      1.000     C          -0.55067  
         C59       1.0000    0.76770   0.80090   0.25440   Biso      1.000     C          -0.110573           
         C60       1.0000    0.66130   0.78320   0.35020   Biso      1.000     C          0.200803  
         C61       1.0000    0.74700   0.78070   0.80370   Biso      1.000     C          -0.184998           
         C62       1.0000    0.30550   0.09110   0.30170   Biso      1.000     C          -0.084671           
         C63       1.0000    0.80550   0.40890   0.19830   Biso      1.000     C          -0.084682           
         C64       1.0000    0.21930   0.74700   0.19630   Biso      1.000     C          -0.184999           
         C65       1.0000    0.26770   0.69910   0.24560   Biso      1.000     C          -0.110573           
         C66       1.0000    0.99090   0.75180   0.19430   Biso      1.000     C          -0.55067  
         C67       1.0000    0.79250   0.18420   0.99200   Biso      1.000     C          -0.552801           
         C68       1.0000    0.83870   0.28320   0.14980   Biso      1.000     C          0.200778  
         C69       1.0000    0.03610   0.78600   0.12030   Biso      1.000     C          0.382109  
         C70       1.0000    0.13090   0.81350   0.03360   Biso      1.000     C          0.389329  
         C71       1.0000    0.16130   0.71680   0.14980   Biso      1.000     C          0.200803  
         C72       1.0000    0.20750   0.81580   0.99200   Biso      1.000     C          -0.552801           
         C73       1.0000    0.96390   0.21400   0.12030   Biso      1.000     C          0.382109  
         C74       1.0000    0.00910   0.24820   0.19430   Biso      1.000     C          -0.550671           
         C75       1.0000    0.73230   0.30090   0.24560   Biso      1.000     C          -0.110576           
         C76       1.0000    0.78070   0.25300   0.19630   Biso      1.000     C          -0.18497  
         C77       1.0000    0.69480   0.43130   0.30130   Biso      1.000     C          0.581201  
         C78       1.0000    0.74440   0.38060   0.24660   Biso      1.000     C          -0.006645           
         C79       1.0000    0.71680   0.83870   0.85020   Biso      1.000     C          0.200804  
         C80       1.0000    0.86910   0.18650   0.03360   Biso      1.000     C          0.389329  
         C81       1.0000    0.56870   0.69480   0.69870   Biso      1.000     C          0.581203  
         C82       1.0000    0.85170   0.36210   0.14730   Biso      1.000     C          -0.19326  
         C83       1.0000    0.19450   0.59110   0.19830   Biso      1.000     C          -0.084685           
         C84       1.0000    0.63790   0.85170   0.85270   Biso      1.000     C          -0.193272           
         C85       1.0000    0.25560   0.61940   0.24660   Biso      1.000     C          -0.006646           
         C86       1.0000    0.14830   0.63790   0.14730   Biso      1.000     C          -0.193264           
         C87       1.0000    0.59110   0.80550   0.80170   Biso      1.000     C          -0.084675           
         C88       1.0000    0.61940   0.74440   0.75340   Biso      1.000     C          -0.006646           
         Cu1       1.0000    0.06782   0.04997   0.08308   Biso      1.000     Cu          0.853626  
         Cu2       1.0000    0.04997   0.93218   0.91692   Biso      1.000     Cu          0.853621  
         Cu3       1.0000    0.43218   0.54997   0.41692   Biso      1.000     Cu          0.85362   
         Cu4       1.0000    0.93218   0.95003   0.08308   Biso      1.000     Cu          0.853622  
         Cu5       1.0000    0.54997   0.56782   0.58308   Biso      1.000     Cu          0.85362   
         Cu6       1.0000    0.45003   0.43218   0.58308   Biso      1.000     Cu          0.853619  
         Cu7       1.0000    0.56782   0.45003   0.41692   Biso      1.000     Cu          0.853623  
         Cu8       1.0000    0.95003   0.06782   0.91692   Biso      1.000     Cu          0.853616  
         H1        1.0000    0.02560   0.74100   0.24250   Biso      1.000     H          0.180491  
         H2        1.0000    0.71720   0.73320   0.53710   Biso      1.000     H          0.182212  
         H3        1.0000    0.70880   0.64250   0.55040   Biso      1.000     H          0.188223  
         H4        1.0000    0.45150   0.71170   0.28710   Biso      1.000     H          0.19919   
         H5        1.0000    0.46650   0.79590   0.32460   Biso      1.000     H          0.175712  
         H6        1.0000    0.52560   0.75900   0.25750   Biso      1.000     H          0.180492  
         H7        1.0000    0.35750   0.70880   0.44960   Biso      1.000     H          0.188224  
         H8        1.0000    0.22760   0.80090   0.19590   Biso      1.000     H          0.138908  
         H9        1.0000    0.03770   0.68390   0.70010   Biso      1.000     H          0.114867  
         H10       1.0000    0.26680   0.71720   0.46290   Biso      1.000     H          0.182213  
         H11       1.0000    0.11670   0.60920   0.61200   Biso      1.000     H          0.13097   
         H12       1.0000    0.72760   0.69910   0.30410   Biso      1.000     H          0.138908  
         H13       1.0000    0.32460   0.74700   0.53590   Biso      1.000     H          0.186136  
         H14       1.0000    0.10920   0.61670   0.11200   Biso      1.000     H          0.130969  
         H15       1.0000    0.60920   0.88330   0.38800   Biso      1.000     H          0.130969  
         H16       1.0000    0.81610   0.46230   0.20010   Biso      1.000     H          0.114869  
         H17       1.0000    0.68390   0.96230   0.29990   Biso      1.000     H          0.114867  
         H18       1.0000    0.30090   0.72760   0.69590   Biso      1.000     H          0.138908  
         H19       1.0000    0.80840   0.77930   0.22190   Biso      1.000     H          0.127254  
         H20       1.0000    0.74700   0.67540   0.46410   Biso      1.000     H          0.186135  
         H21       1.0000    0.22070   0.80840   0.77810   Biso      1.000     H          0.127253  
         H22       1.0000    0.24700   0.82460   0.03590   Biso      1.000     H          0.186136  
         H23       1.0000    0.96650   0.70410   0.17540   Biso      1.000     H          0.175713  
         H24       1.0000    0.95150   0.78830   0.21290   Biso      1.000     H          0.19919   
         H25       1.0000    0.24100   0.52560   0.74250   Biso      1.000     H          0.180491  
         H26       1.0000    0.20410   0.46650   0.67540   Biso      1.000     H          0.175712  
         H27       1.0000    0.79590   0.53350   0.67540   Biso      1.000     H          0.175714  
         H28       1.0000    0.75900   0.47440   0.74250   Biso      1.000     H          0.180494  
         H29       1.0000    0.28830   0.45150   0.71290   Biso      1.000     H          0.199189  
         H30       1.0000    0.77930   0.19160   0.77810   Biso      1.000     H          0.127255  
         H31       1.0000    0.18390   0.53770   0.20010   Biso      1.000     H          0.114867  
         H32       1.0000    0.69910   0.27240   0.69590   Biso      1.000     H          0.138909  
         H33       1.0000    0.73320   0.28280   0.46290   Biso      1.000     H          0.182213  
         H34       1.0000    0.67540   0.25300   0.53590   Biso      1.000     H          0.186136  
         H35       1.0000    0.30840   0.72070   0.27810   Biso      1.000     H          0.127254  
         H36       1.0000    0.20880   0.85750   0.94960   Biso      1.000     H          0.188223  
         H37       1.0000    0.88330   0.39080   0.61200   Biso      1.000     H          0.130972  
         H38       1.0000    0.21720   0.76680   0.96290   Biso      1.000     H          0.182212  
         H39       1.0000    0.96230   0.31610   0.70010   Biso      1.000     H          0.114869  
         H40       1.0000    0.64250   0.29120   0.44960   Biso      1.000     H          0.188224  
         H41       1.0000    0.71170   0.54850   0.71290   Biso      1.000     H          0.199191  
         H42       1.0000    0.80090   0.77240   0.80410   Biso      1.000     H          0.138909  
         H43       1.0000    0.21170   0.95150   0.78710   Biso      1.000     H          0.199191  
         H44       1.0000    0.04850   0.21170   0.21290   Biso      1.000     H          0.199191  
         H45       1.0000    0.31610   0.03770   0.29990   Biso      1.000     H          0.114868  
         H46       1.0000    0.85750   0.79120   0.05040   Biso      1.000     H          0.188224  
         H47       1.0000    0.17540   0.24700   0.96410   Biso      1.000     H          0.186136  
         H48       1.0000    0.23320   0.21720   0.03710   Biso      1.000     H          0.182213  
         H49       1.0000    0.14250   0.20880   0.05040   Biso      1.000     H          0.188224  
         H50       1.0000    0.79120   0.14250   0.94960   Biso      1.000     H          0.188224  
         H51       1.0000    0.78280   0.23320   0.96290   Biso      1.000     H          0.182213  
         H52       1.0000    0.89080   0.38330   0.11200   Biso      1.000     H          0.130971  
         H53       1.0000    0.29590   0.96650   0.82460   Biso      1.000     H          0.175714  
         H54       1.0000    0.39080   0.11670   0.38800   Biso      1.000     H          0.130972  
         H55       1.0000    0.25900   0.02560   0.75750   Biso      1.000     H          0.180495  
         H56       1.0000    0.27930   0.30840   0.72190   Biso      1.000     H          0.127255  
         H57       1.0000    0.19910   0.22760   0.80410   Biso      1.000     H          0.138909  
         H58       1.0000    0.38330   0.10920   0.88800   Biso      1.000     H          0.130973  
         H59       1.0000    0.72070   0.69160   0.72190   Biso      1.000     H          0.127254  
         H60       1.0000    0.46230   0.18390   0.79990   Biso      1.000     H          0.114868  
         H61       1.0000    0.74100   0.97440   0.75750   Biso      1.000     H          0.180493  
         H62       1.0000    0.70410   0.03350   0.82460   Biso      1.000     H          0.175713  
         H63       1.0000    0.78830   0.04850   0.78710   Biso      1.000     H          0.19919   
         H64       1.0000    0.82460   0.75300   0.96410   Biso      1.000     H          0.186137  
         H65       1.0000    0.76680   0.78280   0.03710   Biso      1.000     H          0.182214  
         H66       1.0000    0.75300   0.17540   0.03590   Biso      1.000     H          0.186136  
         H67       1.0000    0.03350   0.29590   0.17540   Biso      1.000     H          0.175714  
         H68       1.0000    0.53770   0.81610   0.79990   Biso      1.000     H          0.114868  
         H69       1.0000    0.29120   0.35750   0.55040   Biso      1.000     H          0.188224  
         H70       1.0000    0.97440   0.25900   0.24250   Biso      1.000     H          0.180494  
         H71       1.0000    0.61670   0.89080   0.88800   Biso      1.000     H          0.130972  
         H72       1.0000    0.54850   0.28830   0.28710   Biso      1.000     H          0.19919   
         H73       1.0000    0.47440   0.24100   0.25750   Biso      1.000     H          0.180493  
         H74       1.0000    0.77240   0.19910   0.19590   Biso      1.000     H          0.138907  
         H75       1.0000    0.25300   0.32460   0.46410   Biso      1.000     H          0.186137  
         H76       1.0000    0.28280   0.26680   0.53710   Biso      1.000     H          0.182214  
         H77       1.0000    0.53350   0.20410   0.32460   Biso      1.000     H          0.175713  
         H78       1.0000    0.27240   0.30090   0.30410   Biso      1.000     H          0.138909  
         H79       1.0000    0.19160   0.22070   0.22190   Biso      1.000     H          0.127254  
         H80       1.0000    0.69160   0.27930   0.27810   Biso      1.000     H          0.127254  
         N1        1.0000    0.98920   0.16180   0.06790   Biso      1.000     N          -0.284386           
         N2        1.0000    0.92870   0.14540   0.01130   Biso      1.000     N          -0.257981           
         N3        1.0000    0.88920   0.23210   0.10290   Biso      1.000     N          -0.154566           
         N4        1.0000    0.07130   0.85460   0.01130   Biso      1.000     N          -0.257985           
         N5        1.0000    0.42870   0.35460   0.48870   Biso      1.000     N          -0.257984           
         N6        1.0000    0.76790   0.88920   0.89710   Biso      1.000     N          -0.154567           
         N7        1.0000    0.85460   0.92870   0.98870   Biso      1.000     N          -0.257985           
         N8        1.0000    0.83820   0.98920   0.93210   Biso      1.000     N          -0.284381           
         N9        1.0000    0.38920   0.26790   0.39710   Biso      1.000     N          -0.154568           
         N10       1.0000    0.48920   0.33820   0.43210   Biso      1.000     N          -0.284382           
         N11       1.0000    0.33820   0.51080   0.56790   Biso      1.000     N          -0.284385           
         N12       1.0000    0.64540   0.42870   0.51130   Biso      1.000     N          -0.257983           
         N13       1.0000    0.73210   0.38920   0.60290   Biso      1.000     N          -0.154567           
         N14       1.0000    0.26790   0.61080   0.60290   Biso      1.000     N          -0.154567           
         N15       1.0000    0.61080   0.73210   0.39710   Biso      1.000     N          -0.154567           
         N16       1.0000    0.14540   0.07130   0.98870   Biso      1.000     N          -0.257983           
         N17       1.0000    0.35460   0.57130   0.51130   Biso      1.000     N          -0.257981           
         N18       1.0000    0.57130   0.64540   0.48870   Biso      1.000     N          -0.257985           
         N19       1.0000    0.16180   0.01080   0.93210   Biso      1.000     N          -0.284379           
         N20       1.0000    0.11080   0.76790   0.10290   Biso      1.000     N          -0.154567           
         N21       1.0000    0.66180   0.48920   0.56790   Biso      1.000     N          -0.284379           
         N22       1.0000    0.01080   0.83820   0.06790   Biso      1.000     N          -0.284382           
         N23       1.0000    0.51080   0.66180   0.43210   Biso      1.000     N          -0.284382           
         N24       1.0000    0.23210   0.11080   0.89710   Biso      1.000     N          -0.154567           
         O1        1.0000    0.00000   0.00000   0.00000   Biso      1.000     O          -0.76966  
         O2        1.0000    0.50000   0.50000   0.33070   Biso      1.000     O          -0.66394  
         O3        1.0000    0.09860   0.86610   0.82840   Biso      1.000     O          -0.527991           
         O4        1.0000    0.00140   0.78390   0.81780   Biso      1.000     O          -0.598097           
         O5        1.0000    0.50000   0.50000   0.50000   Biso      1.000     O          -0.769657           
         O6        1.0000    0.50000   0.50000   0.66930   Biso      1.000     O          -0.663929           
         O7        1.0000    0.21610   0.00140   0.18220   Biso      1.000     O          -0.598094           
         O8        1.0000    0.50140   0.71610   0.68220   Biso      1.000     O          -0.598097           
         O9        1.0000    0.71610   0.49860   0.31780   Biso      1.000     O          -0.598095           
         O10       1.0000    0.63390   0.40140   0.32840   Biso      1.000     O          -0.527987           
         O11       1.0000    0.99860   0.21610   0.81780   Biso      1.000     O          -0.598099           
         O12       1.0000    0.90140   0.13390   0.82840   Biso      1.000     O          -0.527994           
         O13       1.0000    0.40140   0.36610   0.67160   Biso      1.000     O          -0.52799  
         O14       1.0000    0.49860   0.28390   0.68220   Biso      1.000     O          -0.598098           
         O15       1.0000    0.00000   0.00000   0.16930   Biso      1.000     O          -0.663941           
         O16       1.0000    0.78390   0.99860   0.18220   Biso      1.000     O          -0.5981   
         O17       1.0000    0.86610   0.90140   0.17160   Biso      1.000     O          -0.527992           
         O18       1.0000    0.36610   0.59860   0.32840   Biso      1.000     O          -0.527991           
         O19       1.0000    0.28390   0.50140   0.31780   Biso      1.000     O          -0.598099           
         O20       1.0000    0.13390   0.09860   0.17160   Biso      1.000     O          -0.527987           
         O21       1.0000    0.59860   0.63390   0.67160   Biso      1.000     O          -0.527993           
         O22       1.0000    0.00000   0.00000   0.83070   Biso      1.000     O          -0.663924 