
##########################################################################
#               Crystallographic Information Format file
#               Produced by PyCifRW module
#
#  This is a CIF file.  CIF has been adopted by the International
#  Union of Crystallography as the standard for data archiving and
#  transmission.
#
#  For information on this file format, follow the CIF links at
#  http://www.iucr.org
##########################################################################

data_image0

_cell_length_a                          8.4515
_cell_length_b                          12.3972
_cell_length_c                          12.568
_cell_angle_alpha                       110.453
_cell_angle_beta                        102.132
_cell_angle_gamma                       109.619
_symmetry_space_group_name_H-M          'P 1'
_symmetry_int_tables_number             1
loop_
  _symmetry_equiv_pos_as_xyz
         'x, y, z' 
loop_
  _atom_site_label
  _atom_site_occupancy
  _atom_site_fract_x
  _atom_site_fract_y
  _atom_site_fract_z
  _atom_site_thermal_displace_type
  _atom_site_B_iso_or_equiv
  _atom_site_type_symbol
  _atom_site_charge
         C1        1.0000    0.84930   0.45450   0.84420   Biso      1.000     C          -0.114739           
         C2        1.0000    0.00740   0.52950   0.06170   Biso      1.000     C          0.06262   
         C3        1.0000    0.87660   0.57170   0.08760   Biso      1.000     C          -0.077869           
         C4        1.0000    0.67150   0.70860   0.66850   Biso      1.000     C          0.619437  
         C5        1.0000    0.81790   0.82100   0.78510   Biso      1.000     C          -0.018552           
         C6        1.0000    0.99970   0.86580   0.79610   Biso      1.000     C          -0.096879           
         C7        1.0000    0.13190   0.96220   0.90320   Biso      1.000     C          -0.110984           
         C8        1.0000    0.73830   0.55510   0.99430   Biso      1.000     C          -0.085153           
         C9        1.0000    0.67700   0.95080   0.55160   Biso      1.000     C          -0.074177           
         C10       1.0000    0.09130   0.02350   0.00440   Biso      1.000     C          0.070106  
         C11       1.0000    0.77350   0.87300   0.88330   Biso      1.000     C          -0.133491           
         C12       1.0000    0.72410   0.49650   0.87180   Biso      1.000     C          -0.001099           
         C13       1.0000    0.56990   0.47870   0.77250   Biso      1.000     C          0.545971  
         C14       1.0000    0.98570   0.25110   0.55000   Biso      1.000     C          0.550467  
         C15       1.0000    0.81770   0.14710   0.53620   Biso      1.000     C          -0.012946           
         C16       1.0000    0.83060   0.04790   0.56440   Biso      1.000     C          -0.087988           
         C17       1.0000    0.34660   0.85340   0.50310   Biso      1.000     C          -0.107421           
         C18       1.0000    0.22650   0.12700   0.11670   Biso      1.000     C          -0.133507           
         C19       1.0000    0.99260   0.47050   0.93830   Biso      1.000     C          0.062619  
         C20       1.0000    0.50660   0.95060   0.51370   Biso      1.000     C          0.063957  
         C21       1.0000    0.12340   0.42830   0.91240   Biso      1.000     C          -0.077868           
         C22       1.0000    0.90870   0.97650   0.99560   Biso      1.000     C          0.070107  
         C23       1.0000    0.01430   0.74890   0.45000   Biso      1.000     C          0.550473  
         C24       1.0000    0.18230   0.85290   0.46380   Biso      1.000     C          -0.012949           
         C25       1.0000    0.16940   0.95210   0.43560   Biso      1.000     C          -0.087983           
         C26       1.0000    0.86810   0.03780   0.09680   Biso      1.000     C          -0.111012           
         C27       1.0000    0.32300   0.04920   0.44840   Biso      1.000     C          -0.074181           
         C28       1.0000    0.15070   0.54550   0.15580   Biso      1.000     C          -0.114739           
         C29       1.0000    0.65340   0.14660   0.49690   Biso      1.000     C          -0.107424           
         C30       1.0000    0.49340   0.04940   0.48630   Biso      1.000     C          0.063959  
         C31       1.0000    0.18210   0.17900   0.21490   Biso      1.000     C          -0.018539           
         C32       1.0000    0.32850   0.29140   0.33150   Biso      1.000     C          0.619438  
         C33       1.0000    0.43010   0.52130   0.22750   Biso      1.000     C          0.545972  
         C34       1.0000    0.27590   0.50350   0.12820   Biso      1.000     C          -0.001099           
         C35       1.0000    0.26170   0.44490   0.00570   Biso      1.000     C          -0.085153           
         C36       1.0000    0.00030   0.13420   0.20390   Biso      1.000     C          -0.096848           
         H1        1.0000    0.65110   0.58330   0.01220   Biso      1.000     H          0.124928  
         H2        1.0000    0.97000   0.17170   0.27170   Biso      1.000     H          0.124571  
         H3        1.0000    0.35360   0.78780   0.52360   Biso      1.000     H          0.132475  
         H4        1.0000    0.88510   0.61140   0.16970   Biso      1.000     H          0.123116  
         H5        1.0000    0.74540   0.01080   0.08970   Biso      1.000     H          0.118724  
         H6        1.0000    0.16140   0.58520   0.23840   Biso      1.000     H          0.12815   
         H7        1.0000    0.34920   0.16080   0.12390   Biso      1.000     H          0.127634  
         H8        1.0000    0.65080   0.83920   0.87610   Biso      1.000     H          0.127631  
         H9        1.0000    0.94490   0.04890   0.59190   Biso      1.000     H          0.125966  
         H10       1.0000    0.05510   0.95110   0.40810   Biso      1.000     H          0.125966  
         H11       1.0000    0.31490   0.11670   0.43180   Biso      1.000     H          0.125982  
         H12       1.0000    0.64640   0.21220   0.47640   Biso      1.000     H          0.132477  
         H13       1.0000    0.34890   0.41670   0.98780   Biso      1.000     H          0.124927  
         H14       1.0000    0.68510   0.88330   0.56820   Biso      1.000     H          0.125982  
         H15       1.0000    0.83860   0.41480   0.76160   Biso      1.000     H          0.12815   
         H16       1.0000    0.11490   0.38860   0.83030   Biso      1.000     H          0.123115  
         H17       1.0000    0.25460   0.98920   0.91030   Biso      1.000     H          0.118721  
         H18       1.0000    0.03000   0.82830   0.72830   Biso      1.000     H          0.124572  
         O1        1.0000    0.51600   0.65850   0.66780   Biso      1.000     O          -0.61182  
         O2        1.0000    0.71650   0.67300   0.57840   Biso      1.000     O          -0.602195           
         O3        1.0000    0.13900   0.26610   0.60730   Biso      1.000     O          -0.571886           
         O4        1.0000    0.28350   0.32700   0.42160   Biso      1.000     O          -0.602197           
         O5        1.0000    0.48400   0.34150   0.33220   Biso      1.000     O          -0.611821           
         O6        1.0000    0.44080   0.56660   0.33890   Biso      1.000     O          -0.53237  
         O7        1.0000    0.55030   0.49150   0.20100   Biso      1.000     O          -0.554762           
         O8        1.0000    0.55920   0.43340   0.66110   Biso      1.000     O          -0.532365           
         O9        1.0000    0.44970   0.50850   0.79900   Biso      1.000     O          -0.554758           
         O10       1.0000    0.97180   0.32830   0.50680   Biso      1.000     O          -0.599537           
         O11       1.0000    0.02820   0.67170   0.49320   Biso      1.000     O          -0.599538           
         O12       1.0000    0.86100   0.73390   0.39270   Biso      1.000     O          -0.571886           
         Yb1       1.0000    0.29403   0.45853   0.59639   Biso      1.000     Yb          1.349759  
         Yb2       1.0000    0.70597   0.54147   0.40361   Biso      1.000     Yb          1.349765 