
##########################################################################
#               Crystallographic Information Format file
#               Produced by PyCifRW module
#
#  This is a CIF file.  CIF has been adopted by the International
#  Union of Crystallography as the standard for data archiving and
#  transmission.
#
#  For information on this file format, follow the CIF links at
#  http://www.iucr.org
##########################################################################

data_image0

_cell_length_a                          14.761
_cell_length_b                          14.761
_cell_length_c                          10.879
_cell_angle_alpha                       90
_cell_angle_beta                        90
_cell_angle_gamma                       90
_symmetry_space_group_name_H-M          'P 1'
_symmetry_int_tables_number             1
loop_
  _symmetry_equiv_pos_as_xyz
         'x, y, z' 
loop_
  _atom_site_label
  _atom_site_occupancy
  _atom_site_fract_x
  _atom_site_fract_y
  _atom_site_fract_z
  _atom_site_thermal_displace_type
  _atom_site_B_iso_or_equiv
  _atom_site_type_symbol
  _atom_site_charge
         C1        1.0000    0.72216   0.66569   0.93925   Biso      1.000     C          0.466262  
         C2        1.0000    0.22216   0.66569   0.56075   Biso      1.000     C          0.466261  
         C3        1.0000    0.91569   0.02784   0.31075   Biso      1.000     C          0.466262  
         C4        1.0000    0.58431   0.52784   0.31075   Biso      1.000     C          0.466262  
         C5        1.0000    0.08431   0.02784   0.81075   Biso      1.000     C          0.466262  
         C6        1.0000    0.91569   0.52784   0.68925   Biso      1.000     C          0.466263  
         C7        1.0000    0.72216   0.16569   0.06075   Biso      1.000     C          0.466261  
         C8        1.0000    0.41569   0.52784   0.81075   Biso      1.000     C          0.466261  
         C9        1.0000    0.27784   0.66569   0.43925   Biso      1.000     C          0.466261  
         C10       1.0000    0.91569   0.47216   0.81075   Biso      1.000     C          0.466262  
         C11       1.0000    0.27784   0.83431   0.93925   Biso      1.000     C          0.466261  
         C12       1.0000    0.08431   0.52784   0.18925   Biso      1.000     C          0.466262  
         C13       1.0000    0.41569   0.97216   0.31075   Biso      1.000     C          0.466262  
         C14       1.0000    0.58431   0.97216   0.81075   Biso      1.000     C          0.466261  
         C15       1.0000    0.27784   0.33431   0.06075   Biso      1.000     C          0.466261  
         C16       1.0000    0.77784   0.33431   0.43925   Biso      1.000     C          0.466262  
         C17       1.0000    0.72216   0.83431   0.43925   Biso      1.000     C          0.466261  
         C18       1.0000    0.08431   0.47216   0.31075   Biso      1.000     C          0.466262  
         C19       1.0000    0.22216   0.83431   0.06075   Biso      1.000     C          0.466262  
         C20       1.0000    0.22216   0.33431   0.93925   Biso      1.000     C          0.466261  
         C21       1.0000    0.41569   0.02784   0.18925   Biso      1.000     C          0.466262  
         C22       1.0000    0.27784   0.16569   0.56075   Biso      1.000     C          0.466261  
         C23       1.0000    0.41569   0.47216   0.68925   Biso      1.000     C          0.466261  
         C24       1.0000    0.77784   0.66569   0.06075   Biso      1.000     C          0.466262  
         C25       1.0000    0.77784   0.83431   0.56075   Biso      1.000     C          0.466261  
         C26       1.0000    0.91569   0.97216   0.18925   Biso      1.000     C          0.466261  
         C27       1.0000    0.58431   0.47216   0.18925   Biso      1.000     C          0.466262  
         C28       1.0000    0.08431   0.97216   0.68925   Biso      1.000     C          0.466262  
         C29       1.0000    0.58431   0.02784   0.68925   Biso      1.000     C          0.466261  
         C30       1.0000    0.77784   0.16569   0.93925   Biso      1.000     C          0.466261  
         C31       1.0000    0.22216   0.16569   0.43925   Biso      1.000     C          0.466262  
         C32       1.0000    0.72216   0.33431   0.56075   Biso      1.000     C          0.466262  
         H1        1.0000    0.42630   0.20010   0.76100   Biso      1.000     H          0.329408  
         H2        1.0000    0.93980   0.60300   0.40900   Biso      1.000     H          0.352792  
         H3        1.0000    0.14700   0.18980   0.15900   Biso      1.000     H          0.352792  
         H4        1.0000    0.45010   0.67630   0.01100   Biso      1.000     H          0.329409  
         H5        1.0000    0.35300   0.81020   0.65900   Biso      1.000     H          0.352792  
         H6        1.0000    0.07370   0.20010   0.23900   Biso      1.000     H          0.329408  
         H7        1.0000    0.64700   0.18980   0.34100   Biso      1.000     H          0.352792  
         H8        1.0000    0.43980   0.89700   0.59100   Biso      1.000     H          0.35279   
         H9        1.0000    0.57370   0.20010   0.26100   Biso      1.000     H          0.329408  
         H10       1.0000    0.54990   0.67630   0.51100   Biso      1.000     H          0.329408  
         H11       1.0000    0.95010   0.32370   0.01100   Biso      1.000     H          0.329408  
         H12       1.0000    0.54990   0.82370   0.01100   Biso      1.000     H          0.329408  
         H13       1.0000    0.57370   0.70010   0.73900   Biso      1.000     H          0.329408  
         H14       1.0000    0.64700   0.68980   0.65900   Biso      1.000     H          0.352792  
         H15       1.0000    0.14700   0.68980   0.84100   Biso      1.000     H          0.352792  
         H16       1.0000    0.07370   0.70010   0.76100   Biso      1.000     H          0.329408  
         H17       1.0000    0.85300   0.31020   0.15900   Biso      1.000     H          0.352792  
         H18       1.0000    0.56020   0.89700   0.09100   Biso      1.000     H          0.352791  
         H19       1.0000    0.95010   0.17630   0.51100   Biso      1.000     H          0.329408  
         H20       1.0000    0.93980   0.10300   0.59100   Biso      1.000     H          0.352791  
         H21       1.0000    0.42630   0.29990   0.26100   Biso      1.000     H          0.329408  
         H22       1.0000    0.06020   0.39700   0.59100   Biso      1.000     H          0.352791  
         H23       1.0000    0.35300   0.18980   0.84100   Biso      1.000     H          0.352792  
         H24       1.0000    0.04990   0.32370   0.51100   Biso      1.000     H          0.329409  
         H25       1.0000    0.42630   0.79990   0.73900   Biso      1.000     H          0.329408  
         H26       1.0000    0.43980   0.60300   0.09100   Biso      1.000     H          0.352791  
         H27       1.0000    0.92630   0.29990   0.23900   Biso      1.000     H          0.329408  
         H28       1.0000    0.85300   0.68980   0.34100   Biso      1.000     H          0.352792  
         H29       1.0000    0.43980   0.39700   0.40900   Biso      1.000     H          0.352791  
         H30       1.0000    0.06020   0.89700   0.40900   Biso      1.000     H          0.352792  
         H31       1.0000    0.42630   0.70010   0.23900   Biso      1.000     H          0.329408  
         H32       1.0000    0.35300   0.68980   0.15900   Biso      1.000     H          0.352792  
         H33       1.0000    0.04990   0.17630   0.01100   Biso      1.000     H          0.329408  
         H34       1.0000    0.04990   0.82370   0.48900   Biso      1.000     H          0.329408  
         H35       1.0000    0.92630   0.20010   0.73900   Biso      1.000     H          0.329408  
         H36       1.0000    0.35300   0.31020   0.34100   Biso      1.000     H          0.352792  
         H37       1.0000    0.85300   0.18980   0.65900   Biso      1.000     H          0.352792  
         H38       1.0000    0.57370   0.29990   0.76100   Biso      1.000     H          0.329408  
         H39       1.0000    0.07370   0.29990   0.73900   Biso      1.000     H          0.329408  
         H40       1.0000    0.14700   0.31020   0.65900   Biso      1.000     H          0.352792  
         H41       1.0000    0.06020   0.10300   0.09100   Biso      1.000     H          0.352791  
         H42       1.0000    0.57370   0.79990   0.23900   Biso      1.000     H          0.329408  
         H43       1.0000    0.64700   0.81020   0.15900   Biso      1.000     H          0.352792  
         H44       1.0000    0.56020   0.60300   0.59100   Biso      1.000     H          0.352791  
         H45       1.0000    0.64700   0.31020   0.84100   Biso      1.000     H          0.352792  
         H46       1.0000    0.07370   0.79990   0.26100   Biso      1.000     H          0.329408  
         H47       1.0000    0.45010   0.32370   0.48900   Biso      1.000     H          0.329409  
         H48       1.0000    0.14700   0.81020   0.34100   Biso      1.000     H          0.352792  
         H49       1.0000    0.95010   0.67630   0.48900   Biso      1.000     H          0.329408  
         H50       1.0000    0.92630   0.70010   0.26100   Biso      1.000     H          0.329408  
         H51       1.0000    0.92630   0.79990   0.76100   Biso      1.000     H          0.329408  
         H52       1.0000    0.85300   0.81020   0.84100   Biso      1.000     H          0.352792  
         H53       1.0000    0.93980   0.39700   0.09100   Biso      1.000     H          0.352791  
         H54       1.0000    0.43980   0.10300   0.90900   Biso      1.000     H          0.35279   
         H55       1.0000    0.54990   0.17630   0.48900   Biso      1.000     H          0.329408  
         H56       1.0000    0.56020   0.10300   0.40900   Biso      1.000     H          0.352791  
         H57       1.0000    0.54990   0.32370   0.98900   Biso      1.000     H          0.329408  
         H58       1.0000    0.45010   0.82370   0.51100   Biso      1.000     H          0.329408  
         H59       1.0000    0.04990   0.67630   0.98900   Biso      1.000     H          0.329409  
         H60       1.0000    0.06020   0.60300   0.90900   Biso      1.000     H          0.352791  
         H61       1.0000    0.56020   0.39700   0.90900   Biso      1.000     H          0.352791  
         H62       1.0000    0.95010   0.82370   0.98900   Biso      1.000     H          0.329408  
         H63       1.0000    0.93980   0.89700   0.90900   Biso      1.000     H          0.352791  
         H64       1.0000    0.45010   0.17630   0.98900   Biso      1.000     H          0.329408  
         N1        1.0000    0.59723   0.29226   0.83409   Biso      1.000     N          -0.536478           
         N2        1.0000    0.09723   0.79226   0.33409   Biso      1.000     N          -0.536477           
         N3        1.0000    0.90277   0.70774   0.33409   Biso      1.000     N          -0.536477           
         N4        1.0000    0.45774   0.84723   0.58409   Biso      1.000     N          -0.536488           
         N5        1.0000    0.54226   0.65277   0.58409   Biso      1.000     N          -0.536489           
         N6        1.0000    0.95774   0.34723   0.08409   Biso      1.000     N          -0.536489           
         N7        1.0000    0.40277   0.20774   0.83409   Biso      1.000     N          -0.536477           
         N8        1.0000    0.04226   0.15277   0.08409   Biso      1.000     N          -0.536488           
         N9        1.0000    0.59723   0.70774   0.66591   Biso      1.000     N          -0.536478           
         N10       1.0000    0.59723   0.79226   0.16591   Biso      1.000     N          -0.536476           
         N11       1.0000    0.09723   0.29226   0.66591   Biso      1.000     N          -0.536476           
         N12       1.0000    0.90277   0.20774   0.66591   Biso      1.000     N          -0.536476           
         N13       1.0000    0.40277   0.70774   0.16591   Biso      1.000     N          -0.536477           
         N14       1.0000    0.45774   0.34723   0.41591   Biso      1.000     N          -0.536488           
         N15       1.0000    0.04226   0.84723   0.41591   Biso      1.000     N          -0.536489           
         N16       1.0000    0.95774   0.84723   0.91591   Biso      1.000     N          -0.536488           
         N17       1.0000    0.09723   0.20774   0.16591   Biso      1.000     N          -0.536477           
         N18       1.0000    0.54226   0.34723   0.91591   Biso      1.000     N          -0.536489           
         N19       1.0000    0.54226   0.15277   0.41591   Biso      1.000     N          -0.536488           
         N20       1.0000    0.90277   0.79226   0.83409   Biso      1.000     N          -0.536476           
         N21       1.0000    0.04226   0.65277   0.91591   Biso      1.000     N          -0.536488           
         N22       1.0000    0.40277   0.29226   0.33409   Biso      1.000     N          -0.536477           
         N23       1.0000    0.95774   0.15277   0.58409   Biso      1.000     N          -0.536488           
         N24       1.0000    0.40277   0.79226   0.66591   Biso      1.000     N          -0.536478           
         N25       1.0000    0.45774   0.15277   0.91591   Biso      1.000     N          -0.536488           
         N26       1.0000    0.54226   0.84723   0.08409   Biso      1.000     N          -0.536488           
         N27       1.0000    0.45774   0.65277   0.08409   Biso      1.000     N          -0.536488           
         N28       1.0000    0.04226   0.34723   0.58409   Biso      1.000     N          -0.536488           
         N29       1.0000    0.09723   0.70774   0.83409   Biso      1.000     N          -0.536477           
         N30       1.0000    0.95774   0.65277   0.41591   Biso      1.000     N          -0.536489           
         N31       1.0000    0.59723   0.20774   0.33409   Biso      1.000     N          -0.536477           
         N32       1.0000    0.90277   0.29226   0.16591   Biso      1.000     N          -0.536477           
         Ni1       1.0000    0.40499   0.34501   0.87500   Biso      1.000     Ni          0.75681   
         Ni2       1.0000    0.90499   0.84501   0.37500   Biso      1.000     Ni          0.75681   
         Ni3       1.0000    0.09501   0.65499   0.37500   Biso      1.000     Ni          0.756809  
         Ni4       1.0000    0.59501   0.15499   0.87500   Biso      1.000     Ni          0.75681   
         Ni5       1.0000    0.40499   0.65499   0.62500   Biso      1.000     Ni          0.756811  
         Ni6       1.0000    0.90499   0.15499   0.12500   Biso      1.000     Ni          0.75681   
         Ni7       1.0000    0.40499   0.15499   0.37500   Biso      1.000     Ni          0.756811  
         Ni8       1.0000    0.59501   0.84501   0.62500   Biso      1.000     Ni          0.756811  
         Ni9       1.0000    0.09501   0.84501   0.87500   Biso      1.000     Ni          0.756809  
         Ni10      1.0000    0.40499   0.84501   0.12500   Biso      1.000     Ni          0.75681   
         Ni11      1.0000    0.09501   0.34501   0.12500   Biso      1.000     Ni          0.756809  
         Ni12      1.0000    0.90499   0.34501   0.62500   Biso      1.000     Ni          0.756808  
         Ni13      1.0000    0.09501   0.15499   0.62500   Biso      1.000     Ni          0.756809  
         Ni14      1.0000    0.59501   0.65499   0.12500   Biso      1.000     Ni          0.756808  
         Ni15      1.0000    0.90499   0.65499   0.87500   Biso      1.000     Ni          0.756808  
         Ni16      1.0000    0.59501   0.34501   0.37500   Biso      1.000     Ni          0.756809  
         O1        1.0000    0.63768   0.67533   0.94761   Biso      1.000     O          -0.499722           
         O2        1.0000    0.57467   0.88768   0.80239   Biso      1.000     O          -0.499724           
         O3        1.0000    0.42533   0.88768   0.30239   Biso      1.000     O          -0.499722           
         O4        1.0000    0.59592   0.01552   0.90842   Biso      1.000     O          -0.490657           
         O5        1.0000    0.13768   0.17533   0.44761   Biso      1.000     O          -0.499724           
         O6        1.0000    0.73448   0.34592   0.34158   Biso      1.000     O          -0.490664           
         O7        1.0000    0.40408   0.48448   0.90842   Biso      1.000     O          -0.490657           
         O8        1.0000    0.86232   0.32467   0.44761   Biso      1.000     O          -0.499723           
         O9        1.0000    0.42533   0.61232   0.80239   Biso      1.000     O          -0.499723           
         O10       1.0000    0.23448   0.84592   0.84158   Biso      1.000     O          -0.490664           
         O11       1.0000    0.26552   0.15408   0.34158   Biso      1.000     O          -0.490665           
         O12       1.0000    0.76552   0.65408   0.84158   Biso      1.000     O          -0.490664           
         O13       1.0000    0.90408   0.01552   0.09158   Biso      1.000     O          -0.490656           
         O14       1.0000    0.40408   0.01552   0.40842   Biso      1.000     O          -0.490655           
         O15       1.0000    0.86232   0.67533   0.05239   Biso      1.000     O          -0.499723           
         O16       1.0000    0.23448   0.15408   0.65842   Biso      1.000     O          -0.490664           
         O17       1.0000    0.36232   0.17533   0.55239   Biso      1.000     O          -0.499723           
         O18       1.0000    0.76552   0.34592   0.65842   Biso      1.000     O          -0.490664           
         O19       1.0000    0.63768   0.32467   0.55239   Biso      1.000     O          -0.499722           
         O20       1.0000    0.26552   0.84592   0.15842   Biso      1.000     O          -0.490664           
         O21       1.0000    0.13768   0.82467   0.05239   Biso      1.000     O          -0.499724           
         O22       1.0000    0.59592   0.48448   0.40842   Biso      1.000     O          -0.490655           
         O23       1.0000    0.57467   0.61232   0.30239   Biso      1.000     O          -0.499721           
         O24       1.0000    0.09592   0.98448   0.90842   Biso      1.000     O          -0.490655           
         O25       1.0000    0.92533   0.11232   0.30239   Biso      1.000     O          -0.499723           
         O26       1.0000    0.90408   0.98448   0.40842   Biso      1.000     O          -0.490656           
         O27       1.0000    0.07467   0.11232   0.80239   Biso      1.000     O          -0.499722           
         O28       1.0000    0.90408   0.51552   0.90842   Biso      1.000     O          -0.490655           
         O29       1.0000    0.92533   0.38768   0.80239   Biso      1.000     O          -0.499721           
         O30       1.0000    0.07467   0.38768   0.30239   Biso      1.000     O          -0.499723           
         O31       1.0000    0.09592   0.51552   0.40842   Biso      1.000     O          -0.490656           
         O32       1.0000    0.63768   0.17533   0.05239   Biso      1.000     O          -0.499725           
         O33       1.0000    0.90408   0.48448   0.59158   Biso      1.000     O          -0.490655           
         O34       1.0000    0.42533   0.38768   0.69761   Biso      1.000     O          -0.499723           
         O35       1.0000    0.40408   0.51552   0.59158   Biso      1.000     O          -0.490657           
         O36       1.0000    0.86232   0.17533   0.94761   Biso      1.000     O          -0.499725           
         O37       1.0000    0.09592   0.48448   0.09158   Biso      1.000     O          -0.490656           
         O38       1.0000    0.07467   0.61232   0.19761   Biso      1.000     O          -0.499723           
         O39       1.0000    0.73448   0.15408   0.84158   Biso      1.000     O          -0.490666           
         O40       1.0000    0.36232   0.67533   0.44761   Biso      1.000     O          -0.499724           
         O41       1.0000    0.23448   0.65408   0.34158   Biso      1.000     O          -0.490665           
         O42       1.0000    0.63768   0.82467   0.44761   Biso      1.000     O          -0.499725           
         O43       1.0000    0.59592   0.98448   0.59158   Biso      1.000     O          -0.490657           
         O44       1.0000    0.57467   0.11232   0.69761   Biso      1.000     O          -0.499724           
         O45       1.0000    0.76552   0.84592   0.34158   Biso      1.000     O          -0.490666           
         O46       1.0000    0.13768   0.32467   0.94761   Biso      1.000     O          -0.499725           
         O47       1.0000    0.26552   0.34592   0.84158   Biso      1.000     O          -0.490665           
         O48       1.0000    0.23448   0.34592   0.15842   Biso      1.000     O          -0.490665           
         O49       1.0000    0.36232   0.32467   0.05239   Biso      1.000     O          -0.499724           
         O50       1.0000    0.73448   0.84592   0.65842   Biso      1.000     O          -0.490666           
         O51       1.0000    0.86232   0.82467   0.55239   Biso      1.000     O          -0.499725           
         O52       1.0000    0.07467   0.88768   0.69761   Biso      1.000     O          -0.499722           
         O53       1.0000    0.26552   0.65408   0.65842   Biso      1.000     O          -0.490665           
         O54       1.0000    0.13768   0.67533   0.55239   Biso      1.000     O          -0.499725           
         O55       1.0000    0.09592   0.01552   0.59158   Biso      1.000     O          -0.490655           
         O56       1.0000    0.57467   0.38768   0.19761   Biso      1.000     O          -0.499721           
         O57       1.0000    0.59592   0.51552   0.09158   Biso      1.000     O          -0.490655           
         O58       1.0000    0.42533   0.11232   0.19761   Biso      1.000     O          -0.499723           
         O59       1.0000    0.76552   0.15408   0.15842   Biso      1.000     O          -0.490666           
         O60       1.0000    0.92533   0.88768   0.19761   Biso      1.000     O          -0.499723           
         O61       1.0000    0.40408   0.98448   0.09158   Biso      1.000     O          -0.490655           
         O62       1.0000    0.92533   0.61232   0.69761   Biso      1.000     O          -0.499721           
         O63       1.0000    0.36232   0.82467   0.94761   Biso      1.000     O          -0.499723           
         O64       1.0000    0.73448   0.65408   0.15842   Biso      1.000     O          -0.490664 