
##########################################################################
#               Crystallographic Information Format file
#               Produced by PyCifRW module
#
#  This is a CIF file.  CIF has been adopted by the International
#  Union of Crystallography as the standard for data archiving and
#  transmission.
#
#  For information on this file format, follow the CIF links at
#  http://www.iucr.org
##########################################################################

data_image0

_cell_length_a                          6.5886
_cell_length_b                          16.7607
_cell_length_c                          11.7157
_cell_angle_alpha                       90
_cell_angle_beta                        95.644
_cell_angle_gamma                       90
_symmetry_space_group_name_H-M          'P 1'
_symmetry_int_tables_number             1
loop_
  _symmetry_equiv_pos_as_xyz
         'x, y, z' 
loop_
  _atom_site_label
  _atom_site_occupancy
  _atom_site_fract_x
  _atom_site_fract_y
  _atom_site_fract_z
  _atom_site_thermal_displace_type
  _atom_site_B_iso_or_equiv
  _atom_site_type_symbol
  _atom_site_charge
         C1        1.0000    0.06680   0.63179   0.85570   Biso      1.000     C          0.599123  
         C2        1.0000    0.77430   0.61902   0.11660   Biso      1.000     C          0.629756  
         C3        1.0000    0.78220   0.68984   0.19310   Biso      1.000     C          -0.125879           
         C4        1.0000    0.94830   0.72460   0.25370   Biso      1.000     C          -0.090807           
         C5        1.0000    0.89460   0.79106   0.31790   Biso      1.000     C          -0.102325           
         C6        1.0000    0.68970   0.80607   0.30460   Biso      1.000     C          -0.108646           
         C7        1.0000    0.56680   0.86821   0.35570   Biso      1.000     C          0.599133  
         C8        1.0000    0.72570   0.11902   0.38340   Biso      1.000     C          0.629754  
         C9        1.0000    0.71780   0.18984   0.30690   Biso      1.000     C          -0.125878           
         C10       1.0000    0.55170   0.22460   0.24630   Biso      1.000     C          -0.090809           
         C11       1.0000    0.60540   0.29106   0.18210   Biso      1.000     C          -0.102329           
         C12       1.0000    0.93320   0.36821   0.14430   Biso      1.000     C          0.599129  
         C13       1.0000    0.22570   0.38098   0.88340   Biso      1.000     C          0.629751  
         C14       1.0000    0.21780   0.31016   0.80690   Biso      1.000     C          -0.12588  
         C15       1.0000    0.05170   0.27540   0.74630   Biso      1.000     C          -0.09081  
         C16       1.0000    0.81030   0.30607   0.19540   Biso      1.000     C          -0.108645           
         C17       1.0000    0.31030   0.19393   0.69540   Biso      1.000     C          -0.108656           
         C18       1.0000    0.43320   0.13179   0.64430   Biso      1.000     C          0.599124  
         C19       1.0000    0.18970   0.69393   0.80460   Biso      1.000     C          -0.108659           
         C20       1.0000    0.39460   0.70894   0.81790   Biso      1.000     C          -0.102321           
         C21       1.0000    0.44830   0.77540   0.75370   Biso      1.000     C          -0.090814           
         C22       1.0000    0.28220   0.81016   0.69310   Biso      1.000     C          -0.125878           
         C23       1.0000    0.10540   0.20894   0.68210   Biso      1.000     C          -0.102321           
         C24       1.0000    0.27430   0.88098   0.61660   Biso      1.000     C          0.629749  
         Cu1       1.0000    0.50000   0.50000   0.00000   Biso      1.000     Cu          0.72637   
         Cu2       1.0000    0.50000   0.00000   0.50000   Biso      1.000     Cu          0.911937  
         Cu3       1.0000    0.00000   0.50000   0.00000   Biso      1.000     Cu          0.911938  
         Cu4       1.0000    0.00000   0.00000   0.50000   Biso      1.000     Cu          0.726361  
         H1        1.0000    0.08130   0.70630   0.25240   Biso      1.000     H          0.140333  
         H2        1.0000    0.48810   0.67870   0.86410   Biso      1.000     H          0.138865  
         H3        1.0000    0.98810   0.82130   0.36410   Biso      1.000     H          0.138868  
         H4        1.0000    0.58130   0.79370   0.75240   Biso      1.000     H          0.140325  
         H5        1.0000    0.01190   0.17870   0.63590   Biso      1.000     H          0.138867  
         H6        1.0000    0.41870   0.20630   0.24760   Biso      1.000     H          0.140329  
         H7        1.0000    0.91870   0.29370   0.74760   Biso      1.000     H          0.140328  
         H8        1.0000    0.51190   0.32130   0.13590   Biso      1.000     H          0.138867  
         O1        1.0000    0.09990   0.90240   0.57475   Biso      1.000     O          -0.541764           
         O2        1.0000    0.59990   0.59760   0.07475   Biso      1.000     O          -0.541767           
         O3        1.0000    0.94290   0.58763   0.10146   Biso      1.000     O          -0.494994           
         O4        1.0000    0.37820   0.86063   0.33941   Biso      1.000     O          -0.500944           
         O5        1.0000    0.66010   0.92491   0.41220   Biso      1.000     O          -0.540294           
         O6        1.0000    0.33990   0.07509   0.58780   Biso      1.000     O          -0.54029  
         O7        1.0000    0.05710   0.41237   0.89854   Biso      1.000     O          -0.494992           
         O8        1.0000    0.62180   0.13937   0.66059   Biso      1.000     O          -0.500943           
         O9        1.0000    0.44290   0.91237   0.60146   Biso      1.000     O          -0.49499  
         O10       1.0000    0.87820   0.63937   0.83941   Biso      1.000     O          -0.500936           
         O11       1.0000    0.90010   0.09760   0.42525   Biso      1.000     O          -0.541765           
         O12       1.0000    0.55710   0.08763   0.39854   Biso      1.000     O          -0.494992           
         O13       1.0000    0.12180   0.36063   0.16059   Biso      1.000     O          -0.500942           
         O14       1.0000    0.16010   0.57509   0.91220   Biso      1.000     O          -0.540292           
         O15       1.0000    0.40010   0.40240   0.92525   Biso      1.000     O          -0.541765           
         O16       1.0000    0.83990   0.42491   0.08780   Biso      1.000     O          -0.540295           
         S1        1.0000    0.06051   0.76143   0.71450   Biso      1.000     S          0.178423  
         S2        1.0000    0.43949   0.26143   0.78550   Biso      1.000     S          0.178428  
         S3        1.0000    0.56051   0.73857   0.21450   Biso      1.000     S          0.178435  
         S4        1.0000    0.93949   0.23857   0.28550   Biso      1.000     S          0.178427 