
##########################################################################
#               Crystallographic Information Format file
#               Produced by PyCifRW module
#
#  This is a CIF file.  CIF has been adopted by the International
#  Union of Crystallography as the standard for data archiving and
#  transmission.
#
#  For information on this file format, follow the CIF links at
#  http://www.iucr.org
##########################################################################

data_image0

_cell_length_a                          9.749
_cell_length_b                          10.658
_cell_length_c                          16.414
_cell_angle_alpha                       74.83
_cell_angle_beta                        82.72
_cell_angle_gamma                       63.98
_symmetry_space_group_name_H-M          'P 1'
_symmetry_int_tables_number             1
loop_
  _symmetry_equiv_pos_as_xyz
         'x, y, z' 
loop_
  _atom_site_label
  _atom_site_occupancy
  _atom_site_fract_x
  _atom_site_fract_y
  _atom_site_fract_z
  _atom_site_thermal_displace_type
  _atom_site_B_iso_or_equiv
  _atom_site_type_symbol
  _atom_site_charge
         C1        1.0000    0.80380   0.73610   0.24230   Biso      1.000     C          0.73793   
         C2        1.0000    0.20540   0.75110   0.04570   Biso      1.000     C          0.7008479999999999  
         C3        1.0000    0.60200   0.75930   0.87780   Biso      1.000     C          -0.350481           
         C4        1.0000    0.84300   0.58020   0.25160   Biso      1.000     C          -0.360683           
         C5        1.0000    0.78390   0.51040   0.32970   Biso      1.000     C          -0.081701           
         C6        1.0000    0.15700   0.41980   0.74840   Biso      1.000     C          -0.360684           
         C7        1.0000    0.68770   0.46540   0.34040   Biso      1.000     C          -0.058347           
         C8        1.0000    0.19620   0.26390   0.75770   Biso      1.000     C          0.73793   
         C9        1.0000    0.64010   0.38080   0.41680   Biso      1.000     C          -0.339278           
         C10       1.0000    0.79460   0.24890   0.95430   Biso      1.000     C          0.7008479999999999  
         C11       1.0000    0.65910   0.23990   0.40270   Biso      1.000     C          0.664068  
         C12       1.0000    0.02420   0.87620   0.30580   Biso      1.000     C          0.718891  
         C13       1.0000    0.11610   0.76590   0.37910   Biso      1.000     C          -0.35365100000000005          
         C14       1.0000    0.74430   0.35970   0.87300   Biso      1.000     C          -0.36156900000000003          
         C15       1.0000    0.19540   0.61790   0.36190   Biso      1.000     C          -0.087005           
         C16       1.0000    0.15860   0.51230   0.39860   Biso      1.000     C          -0.07883  
         C17       1.0000    0.65150   0.50850   0.88600   Biso      1.000     C          -0.074857           
         C18       1.0000    0.23540   0.36460   0.38110   Biso      1.000     C          -0.3604   
         C19       1.0000    0.69280   0.61270   0.86280   Biso      1.000     C          -0.068326           
         C20       1.0000    0.27650   0.24300   0.45800   Biso      1.000     C          0.704311  
         C21       1.0000    0.21610   0.48960   0.67030   Biso      1.000     C          -0.0817   
         C22       1.0000    0.25570   0.64030   0.12700   Biso      1.000     C          -0.36156900000000003          
         C23       1.0000    0.51470   0.85730   0.79890   Biso      1.000     C          0.699754  
         C24       1.0000    0.34850   0.49150   0.11400   Biso      1.000     C          -0.074857           
         C25       1.0000    0.80460   0.38210   0.63810   Biso      1.000     C          -0.087005           
         C26       1.0000    0.31230   0.53460   0.65960   Biso      1.000     C          -0.058347           
         C27       1.0000    0.76460   0.63540   0.61890   Biso      1.000     C          -0.36039899999999997          
         C28       1.0000    0.88390   0.23410   0.62090   Biso      1.000     C          -0.353652           
         C29       1.0000    0.97580   0.12380   0.69420   Biso      1.000     C          0.718891  
         C30       1.0000    0.34090   0.76010   0.59730   Biso      1.000     C          0.664068  
         C31       1.0000    0.39800   0.24070   0.12220   Biso      1.000     C          -0.350483           
         C32       1.0000    0.48530   0.14270   0.20110   Biso      1.000     C          0.699755  
         C33       1.0000    0.72350   0.75700   0.54200   Biso      1.000     C          0.70431   
         C34       1.0000    0.35990   0.61920   0.58320   Biso      1.000     C          -0.339278           
         C35       1.0000    0.30720   0.38730   0.13720   Biso      1.000     C          -0.068325           
         C36       1.0000    0.84140   0.48770   0.60140   Biso      1.000     C          -0.078829           
         H1        1.0000    0.55690   0.52730   0.91270   Biso      1.000     H          0.104029  
         H2        1.0000    0.83180   0.64510   0.65320   Biso      1.000     H          0.153035  
         H3        1.0000    0.67230   0.64380   0.65180   Biso      1.000     H          0.140895  
         H4        1.0000    0.66950   0.79550   0.89180   Biso      1.000     H          0.137453  
         H5        1.0000    0.92060   0.47060   0.56180   Biso      1.000     H          0.102931  
         H6        1.0000    0.53140   0.75610   0.92470   Biso      1.000     H          0.12683599999999998           
         H7        1.0000    0.78610   0.59470   0.83470   Biso      1.000     H          0.097839  
         H8        1.0000    0.95070   0.23630   0.57200   Biso      1.000     H          0.150839  
         H9        1.0000    0.83360   0.35760   0.83880   Biso      1.000     H          0.156684  
         H10       1.0000    0.80810   0.20670   0.60780   Biso      1.000     H          0.160636  
         H11       1.0000    0.68410   0.33550   0.84220   Biso      1.000     H          0.172215  
         H12       1.0000    0.29880   0.63710   0.53570   Biso      1.000     H          0.135536  
         H13       1.0000    0.19640   0.42930   0.79680   Biso      1.000     H          0.136653  
         H14       1.0000    0.04680   0.47180   0.75000   Biso      1.000     H          0.137827  
         H15       1.0000    0.46600   0.56400   0.56970   Biso      1.000     H          0.144803  
         H16       1.0000    0.36710   0.51260   0.70780   Biso      1.000     H          0.07905   
         H17       1.0000    0.17050   0.50040   0.62100   Biso      1.000     H          0.092783  
         H18       1.0000    0.72450   0.39920   0.67720   Biso      1.000     H          0.097358  
         H19       1.0000    0.13300   0.06800   0.06700   Biso      1.000     H          0.451842  
         H20       1.0000    0.86700   0.93200   0.93300   Biso      1.000     H          0.451842  
         H21       1.0000    0.63290   0.48740   0.29220   Biso      1.000     H          0.07905   
         H22       1.0000    0.07940   0.52940   0.43820   Biso      1.000     H          0.102931  
         H23       1.0000    0.16820   0.35490   0.34680   Biso      1.000     H          0.153035  
         H24       1.0000    0.32770   0.35620   0.34820   Biso      1.000     H          0.140895  
         H25       1.0000    0.03700   0.20700   0.05700   Biso      1.000     H          0.467397  
         H26       1.0000    0.96300   0.79300   0.94300   Biso      1.000     H          0.467397  
         H27       1.0000    0.04930   0.76370   0.42800   Biso      1.000     H          0.150839  
         H28       1.0000    0.70120   0.36290   0.46430   Biso      1.000     H          0.135536  
         H29       1.0000    0.53400   0.43600   0.43030   Biso      1.000     H          0.144803  
         H30       1.0000    0.27550   0.60080   0.32280   Biso      1.000     H          0.097358  
         H31       1.0000    0.82950   0.49960   0.37900   Biso      1.000     H          0.092783  
         H32       1.0000    0.80360   0.57070   0.20320   Biso      1.000     H          0.136652  
         H33       1.0000    0.31590   0.66450   0.15780   Biso      1.000     H          0.172216  
         H34       1.0000    0.16640   0.64240   0.16120   Biso      1.000     H          0.156685  
         H35       1.0000    0.44310   0.47270   0.08730   Biso      1.000     H          0.104029  
         H36       1.0000    0.21390   0.40530   0.16530   Biso      1.000     H          0.097839  
         H37       1.0000    0.33050   0.20450   0.10820   Biso      1.000     H          0.137453  
         H38       1.0000    0.46860   0.24390   0.07530   Biso      1.000     H          0.12683699999999998           
         H39       1.0000    0.95320   0.52820   0.25000   Biso      1.000     H          0.137827  
         H40       1.0000    0.19190   0.79330   0.39220   Biso      1.000     H          0.160636  
         La1       1.0000    0.62951   0.98236   0.37590   Biso      1.000     La          1.928753  
         La2       1.0000    0.87616   0.03108   0.12561   Biso      1.000     La          1.916916  
         La3       1.0000    0.37049   0.01764   0.62410   Biso      1.000     La          1.928753  
         La4       1.0000    0.12384   0.96892   0.87439   Biso      1.000     La          1.916916  
         O1        1.0000    0.90590   0.12840   0.95320   Biso      1.000     O          -0.7455109999999999           
         O2        1.0000    0.41480   0.10690   0.26550   Biso      1.000     O          -0.588562           
         O3        1.0000    0.62730   0.10110   0.20280   Biso      1.000     O          -0.709713           
         O4        1.0000    0.09410   0.87160   0.04680   Biso      1.000     O          -0.745512           
         O5        1.0000    0.27290   0.72710   0.97690   Biso      1.000     O          -0.613243           
         O6        1.0000    0.71140   0.80000   0.29180   Biso      1.000     O          -0.622833           
         O7        1.0000    0.86440   0.79240   0.17910   Biso      1.000     O          -0.714478           
         O8        1.0000    0.70800   0.12640   0.46070   Biso      1.000     O          -0.641927           
         O9        1.0000    0.62260   0.23710   0.33280   Biso      1.000     O          -0.650392           
         O10       1.0000    0.88540   0.95140   0.31410   Biso      1.000     O          -0.664879           
         O11       1.0000    0.09010   0.89010   0.23450   Biso      1.000     O          -0.648945           
         O12       1.0000    0.20120   0.25410   0.52450   Biso      1.000     O          -0.5992390000000001           
         O13       1.0000    0.39290   0.12520   0.45380   Biso      1.000     O          -0.706005           
         O14       1.0000    0.72710   0.27290   0.02310   Biso      1.000     O          -0.613243           
         O15       1.0000    0.28860   0.20000   0.70820   Biso      1.000     O          -0.622833           
         O16       1.0000    0.13560   0.20760   0.82090   Biso      1.000     O          -0.714478           
         O17       1.0000    0.29200   0.87360   0.53930   Biso      1.000     O          -0.641927           
         O18       1.0000    0.37740   0.76290   0.66720   Biso      1.000     O          -0.650392           
         O19       1.0000    0.11460   0.04860   0.68590   Biso      1.000     O          -0.664878           
         O20       1.0000    0.90990   0.10990   0.76550   Biso      1.000     O          -0.648946           
         O21       1.0000    0.79880   0.74590   0.47550   Biso      1.000     O          -0.5992390000000001           
         O22       1.0000    0.60710   0.87480   0.54620   Biso      1.000     O          -0.706005           
         O23       1.0000    0.58520   0.89310   0.73450   Biso      1.000     O          -0.588562           
         O24       1.0000    0.91830   0.86760   0.90780   Biso      1.000     O          -0.837255           
         O25       1.0000    0.08170   0.13240   0.09220   Biso      1.000     O          -0.837255           
         O26       1.0000    0.37270   0.89890   0.79720   Biso      1.000     O          -0.7097140000000001 