
##########################################################################
#               Crystallographic Information Format file
#               Produced by PyCifRW module
#
#  This is a CIF file.  CIF has been adopted by the International
#  Union of Crystallography as the standard for data archiving and
#  transmission.
#
#  For information on this file format, follow the CIF links at
#  http://www.iucr.org
##########################################################################

data_image0

_cell_length_a                          10.2245
_cell_length_b                          10.2245
_cell_length_c                          14.369
_cell_angle_alpha                       90
_cell_angle_beta                        90
_cell_angle_gamma                       90
_symmetry_space_group_name_H-M          'P 1'
_symmetry_int_tables_number             1
loop_
  _symmetry_equiv_pos_as_xyz
         'x, y, z' 
loop_
  _atom_site_label
  _atom_site_occupancy
  _atom_site_fract_x
  _atom_site_fract_y
  _atom_site_fract_z
  _atom_site_thermal_displace_type
  _atom_site_B_iso_or_equiv
  _atom_site_type_symbol
  _atom_site_charge
         C1        1.0000    0.39590   0.04660   0.82790   Biso      1.000     C          -0.111324           
         C2        1.0000    0.74070   0.04410   0.17190   Biso      1.000     C          -0.032894           
         C3        1.0000    0.81910   0.08860   0.08870   Biso      1.000     C          0.652488  
         C4        1.0000    0.04660   0.60410   0.07790   Biso      1.000     C          -0.111324           
         C5        1.0000    0.04410   0.74070   0.07810   Biso      1.000     C          -0.032895           
         C6        1.0000    0.08860   0.81910   0.16130   Biso      1.000     C          0.652488  
         C7        1.0000    0.95340   0.39590   0.57790   Biso      1.000     C          -0.111324           
         C8        1.0000    0.95590   0.25930   0.57810   Biso      1.000     C          -0.032895           
         C9        1.0000    0.91140   0.18090   0.66130   Biso      1.000     C          0.652488  
         C10       1.0000    0.60410   0.95340   0.32790   Biso      1.000     C          -0.111324           
         C11       1.0000    0.60410   0.04660   0.17210   Biso      1.000     C          -0.111324           
         C12       1.0000    0.74070   0.95590   0.32810   Biso      1.000     C          -0.032894           
         C13       1.0000    0.19090   0.00000   0.75000   Biso      1.000     C          -0.12053599999999999          
         C14       1.0000    0.25930   0.04410   0.82810   Biso      1.000     C          -0.032895           
         C15       1.0000    0.18090   0.08860   0.91130   Biso      1.000     C          0.652488  
         C16       1.0000    0.00000   0.38720   0.00000   Biso      1.000     C          0.66666   
         C17       1.0000    0.00000   0.53680   0.00000   Biso      1.000     C          -0.037985000000000005         
         C18       1.0000    0.00000   0.80910   0.00000   Biso      1.000     C          -0.12053699999999999          
         C19       1.0000    0.00000   0.61280   0.50000   Biso      1.000     C          0.666661  
         C20       1.0000    0.00000   0.46320   0.50000   Biso      1.000     C          -0.037985000000000005         
         C21       1.0000    0.00000   0.19090   0.50000   Biso      1.000     C          -0.12053599999999999          
         C22       1.0000    0.81910   0.91140   0.41130   Biso      1.000     C          0.652488  
         C23       1.0000    0.18090   0.91140   0.58870   Biso      1.000     C          0.652489  
         C24       1.0000    0.25930   0.95590   0.67190   Biso      1.000     C          -0.032895           
         C25       1.0000    0.39590   0.95340   0.67210   Biso      1.000     C          -0.111324           
         C26       1.0000    0.80910   0.00000   0.25000   Biso      1.000     C          -0.12053599999999999          
         C27       1.0000    0.53680   0.00000   0.25000   Biso      1.000     C          -0.037985000000000005         
         C28       1.0000    0.38720   0.00000   0.25000   Biso      1.000     C          0.66666   
         C29       1.0000    0.61280   0.00000   0.75000   Biso      1.000     C          0.66666   
         C30       1.0000    0.95340   0.60410   0.92210   Biso      1.000     C          -0.111325           
         C31       1.0000    0.46320   0.00000   0.75000   Biso      1.000     C          -0.037985000000000005         
         C32       1.0000    0.08860   0.18090   0.33870   Biso      1.000     C          0.652489  
         C33       1.0000    0.04410   0.25930   0.42190   Biso      1.000     C          -0.032894           
         C34       1.0000    0.04660   0.39590   0.42210   Biso      1.000     C          -0.111325           
         C35       1.0000    0.91140   0.81910   0.83870   Biso      1.000     C          0.652488  
         C36       1.0000    0.95590   0.74070   0.92190   Biso      1.000     C          -0.032894           
         H1        1.0000    0.90000   0.00000   0.25000   Biso      1.000     H          0.11395699999999999           
         H2        1.0000    0.92100   0.55850   0.87100   Biso      1.000     H          0.13103599999999999           
         H3        1.0000    0.07900   0.44150   0.37100   Biso      1.000     H          0.13103599999999999           
         H4        1.0000    0.44150   0.92100   0.62100   Biso      1.000     H          0.13103599999999999           
         H5        1.0000    0.55850   0.07900   0.12100   Biso      1.000     H          0.13103599999999999           
         H6        1.0000    0.92100   0.44150   0.62900   Biso      1.000     H          0.13103599999999999           
         H7        1.0000    0.55850   0.92100   0.37900   Biso      1.000     H          0.13103499999999998           
         H8        1.0000    0.00000   0.90000   0.00000   Biso      1.000     H          0.11395799999999999           
         H9        1.0000    0.00000   0.10000   0.50000   Biso      1.000     H          0.11395699999999999           
         H10       1.0000    0.10000   0.00000   0.75000   Biso      1.000     H          0.11395799999999999           
         H11       1.0000    0.07900   0.55850   0.12900   Biso      1.000     H          0.13103599999999999           
         H12       1.0000    0.44150   0.07900   0.87900   Biso      1.000     H          0.13103599999999999           
         Lu1       1.0000    0.85181   0.14819   0.87500   Biso      1.000     Lu          1.766862  
         Lu2       1.0000    0.14819   0.14819   0.12500   Biso      1.000     Lu          1.766863  
         Lu3       1.0000    0.85181   0.85181   0.62500   Biso      1.000     Lu          1.766861  
         Lu4       1.0000    0.14819   0.85181   0.37500   Biso      1.000     Lu          1.766862  
         O1        1.0000    0.66650   0.07320   0.80810   Biso      1.000     O          -0.609477           
         O2        1.0000    0.76010   0.90410   0.48790   Biso      1.000     O          -0.611297           
         O3        1.0000    0.93580   0.88610   0.39980   Biso      1.000     O          -0.613011           
         O4        1.0000    0.33350   0.92680   0.30810   Biso      1.000     O          -0.609477           
         O5        1.0000    0.90410   0.23990   0.73790   Biso      1.000     O          -0.611297           
         O6        1.0000    0.88610   0.06420   0.64980   Biso      1.000     O          -0.613011           
         O7        1.0000    0.92680   0.66650   0.55810   Biso      1.000     O          -0.609477           
         O8        1.0000    0.09590   0.76010   0.23790   Biso      1.000     O          -0.611296           
         O9        1.0000    0.11390   0.93580   0.14980   Biso      1.000     O          -0.613011           
         O10       1.0000    0.07320   0.33350   0.05810   Biso      1.000     O          -0.609478           
         O11       1.0000    0.76010   0.09590   0.01210   Biso      1.000     O          -0.611297           
         O12       1.0000    0.93580   0.11390   0.10020   Biso      1.000     O          -0.613011           
         O13       1.0000    0.33350   0.07320   0.19190   Biso      1.000     O          -0.609478           
         O14       1.0000    0.23990   0.90410   0.51210   Biso      1.000     O          -0.611297           
         O15       1.0000    0.06420   0.88610   0.60020   Biso      1.000     O          -0.613011           
         O16       1.0000    0.66650   0.92680   0.69190   Biso      1.000     O          -0.609477           
         O17       1.0000    0.09590   0.23990   0.26210   Biso      1.000     O          -0.611297           
         O18       1.0000    0.11390   0.06420   0.35020   Biso      1.000     O          -0.613011           
         O19       1.0000    0.07320   0.66650   0.44190   Biso      1.000     O          -0.609477           
         O20       1.0000    0.90410   0.76010   0.76210   Biso      1.000     O          -0.611296           
         O21       1.0000    0.88610   0.93580   0.85020   Biso      1.000     O          -0.613011           
         O22       1.0000    0.92680   0.33350   0.94190   Biso      1.000     O          -0.609477           
         O23       1.0000    0.06420   0.11390   0.89980   Biso      1.000     O          -0.613011           
         O24       1.0000    0.23990   0.09590   0.98790   Biso      1.000     O          -0.611297 