
##########################################################################
#               Crystallographic Information Format file
#               Produced by PyCifRW module
#
#  This is a CIF file.  CIF has been adopted by the International
#  Union of Crystallography as the standard for data archiving and
#  transmission.
#
#  For information on this file format, follow the CIF links at
#  http://www.iucr.org
##########################################################################

data_image0

_cell_length_a                          9.489
_cell_length_b                          12.76
_cell_length_c                          13.117
_cell_angle_alpha                       75.88
_cell_angle_beta                        72.93
_cell_angle_gamma                       69.65
_symmetry_space_group_name_H-M          'P 1'
_symmetry_int_tables_number             1
loop_
  _symmetry_equiv_pos_as_xyz
         'x, y, z' 
loop_
  _atom_site_label
  _atom_site_occupancy
  _atom_site_fract_x
  _atom_site_fract_y
  _atom_site_fract_z
  _atom_site_thermal_displace_type
  _atom_site_B_iso_or_equiv
  _atom_site_type_symbol
  _atom_site_charge
         C1        1.0000    0.17540   0.87570   0.00880   Biso      1.000     C          -0.203209           
         C2        1.0000    0.03420   0.78340   0.92120   Biso      1.000     C          0.063629  
         C3        1.0000    0.96410   0.89420   0.94060   Biso      1.000     C          -0.195118           
         C4        1.0000    0.03550   0.94270   0.98520   Biso      1.000     C          0.101142  
         C5        1.0000    0.51100   0.52460   0.26130   Biso      1.000     C          0.114541  
         C6        1.0000    0.44460   0.53570   0.36830   Biso      1.000     C          -0.200522           
         C7        1.0000    0.53450   0.49610   0.44110   Biso      1.000     C          0.106224  
         C8        1.0000    0.68810   0.44610   0.40310   Biso      1.000     C          -0.19972  
         C9        1.0000    0.74590   0.43720   0.29430   Biso      1.000     C          0.072538  
         C10       1.0000    0.44350   0.50310   0.99090   Biso      1.000     C          -0.47621  
         C11       1.0000    0.55650   0.49690   0.00910   Biso      1.000     C          -0.476006           
         C12       1.0000    0.23870   0.76660   0.98480   Biso      1.000     C          0.108294  
         C13       1.0000    0.82460   0.12430   0.99120   Biso      1.000     C          -0.203208           
         C14       1.0000    0.96580   0.21660   0.07880   Biso      1.000     C          0.063629  
         C15       1.0000    0.76130   0.23340   0.01520   Biso      1.000     C          0.108293  
         C16       1.0000    0.55540   0.46430   0.63170   Biso      1.000     C          -0.200527           
         C17       1.0000    0.03590   0.10580   0.05940   Biso      1.000     C          -0.195118           
         C18       1.0000    0.96450   0.05730   0.01480   Biso      1.000     C          0.101142  
         C19       1.0000    0.25410   0.56280   0.70570   Biso      1.000     C          0.072539  
         C20       1.0000    0.31190   0.55390   0.59690   Biso      1.000     C          -0.199732           
         C21       1.0000    0.46550   0.50390   0.55890   Biso      1.000     C          0.106235  
         C22       1.0000    0.48900   0.47540   0.73870   Biso      1.000     C          0.114545  
         Cu1       1.0000    0.25374   0.53715   0.94574   Biso      1.000     Cu          0.235859  
         Cu2       1.0000    0.74626   0.46285   0.05426   Biso      1.000     Cu          0.235801  
         H1        1.0000    0.66540   0.27560   0.00070   Biso      1.000     H          0.10593   
         H2        1.0000    0.66100   0.42990   0.60970   Biso      1.000     H          0.126343  
         H3        1.0000    0.85090   0.40240   0.27040   Biso      1.000     H          0.091392  
         H4        1.0000    0.86940   0.93530   0.92360   Biso      1.000     H          0.122603  
         H5        1.0000    0.75420   0.41790   0.45020   Biso      1.000     H          0.123217  
         H6        1.0000    0.22710   0.90390   0.04080   Biso      1.000     H          0.124841  
         H7        1.0000    0.24580   0.58210   0.54980   Biso      1.000     H          0.123218  
         H8        1.0000    0.33900   0.57010   0.39030   Biso      1.000     H          0.126343  
         H9        1.0000    0.01700   0.24780   0.10840   Biso      1.000     H          0.089362  
         H10       1.0000    0.44700   0.55370   0.21290   Biso      1.000     H          0.098951  
         H11       1.0000    0.14910   0.59760   0.72960   Biso      1.000     H          0.091392  
         H12       1.0000    0.33460   0.72440   0.99930   Biso      1.000     H          0.10593   
         H13       1.0000    0.13060   0.06470   0.07640   Biso      1.000     H          0.122603  
         H14       1.0000    0.77290   0.09610   0.95920   Biso      1.000     H          0.124841  
         H15       1.0000    0.55300   0.44630   0.78710   Biso      1.000     H          0.098952  
         H16       1.0000    0.98300   0.75220   0.89160   Biso      1.000     H          0.089362  
         N1        1.0000    0.06120   0.50370   0.98760   Biso      1.000     N          -0.076056           
         N2        1.0000    0.65840   0.47590   0.22270   Biso      1.000     N          -0.164973           
         N3        1.0000    0.83000   0.28100   0.05790   Biso      1.000     N          -0.16921  
         N4        1.0000    0.34160   0.52410   0.77730   Biso      1.000     N          -0.164977           
         N5        1.0000    0.17000   0.71900   0.94210   Biso      1.000     N          -0.169213           
         N6        1.0000    0.93880   0.49630   0.01240   Biso      1.000     N          -0.075891 