
##########################################################################
#               Crystallographic Information Format file
#               Produced by PyCifRW module
#
#  This is a CIF file.  CIF has been adopted by the International
#  Union of Crystallography as the standard for data archiving and
#  transmission.
#
#  For information on this file format, follow the CIF links at
#  http://www.iucr.org
##########################################################################

data_image0

_cell_length_a                          15.0186
_cell_length_b                          15.0186
_cell_length_c                          17.947
_cell_angle_alpha                       94.5508
_cell_angle_beta                        94.5508
_cell_angle_gamma                       90.2886
_symmetry_space_group_name_H-M          'P 1'
_symmetry_int_tables_number             1
loop_
  _symmetry_equiv_pos_as_xyz
         'x, y, z' 
loop_
  _atom_site_label
  _atom_site_occupancy
  _atom_site_fract_x
  _atom_site_fract_y
  _atom_site_fract_z
  _atom_site_thermal_displace_type
  _atom_site_B_iso_or_equiv
  _atom_site_type_symbol
  _atom_site_charge
         C1        1.0000    0.57370   0.60390   0.72710   Biso      1.000     C          -0.176682           
         C2        1.0000    0.96970   0.44990   0.81620   Biso      1.000     C          0.108651  
         C3        1.0000    0.98740   0.35980   0.82890   Biso      1.000     C          -0.203437           
         C4        1.0000    0.04330   0.34250   0.89090   Biso      1.000     C          0.093325  
         C5        1.0000    0.57600   0.30660   0.05240   Biso      1.000     C          0.08372   
         C6        1.0000    0.62930   0.36530   0.10020   Biso      1.000     C          -0.193607           
         C7        1.0000    0.59390   0.44810   0.12400   Biso      1.000     C          0.104393  
         C8        1.0000    0.50760   0.46280   0.09770   Biso      1.000     C          -0.179598           
         C9        1.0000    0.46130   0.40250   0.05090   Biso      1.000     C          0.091233  
         C10       1.0000    0.65030   0.62770   0.27800   Biso      1.000     C          0.08596   
         C11       1.0000    0.60390   0.57370   0.22710   Biso      1.000     C          -0.176641           
         C12       1.0000    0.01000   0.51520   0.86930   Biso      1.000     C          -0.181856           
         C13       1.0000    0.64540   0.51200   0.17950   Biso      1.000     C          0.109976  
         C14       1.0000    0.78210   0.57710   0.23360   Biso      1.000     C          0.083344  
         C15       1.0000    0.89220   0.82020   0.24350   Biso      1.000     C          0.09383   
         C16       1.0000    0.95010   0.88130   0.21700   Biso      1.000     C          -0.202968           
         C17       1.0000    0.02250   0.91270   0.26230   Biso      1.000     C          0.107877  
         C18       1.0000    0.03450   0.87790   0.33280   Biso      1.000     C          -0.182635           
         C19       1.0000    0.97980   0.82000   0.35360   Biso      1.000     C          0.069188  
         C20       1.0000    0.42610   0.18230   0.81250   Biso      1.000     C          0.075711  
         C21       1.0000    0.45300   0.14020   0.74950   Biso      1.000     C          -0.169907           
         C22       1.0000    0.52600   0.08360   0.75190   Biso      1.000     C          0.110887  
         C23       1.0000    0.56690   0.07210   0.82030   Biso      1.000     C          -0.181975           
         C24       1.0000    0.73630   0.51730   0.18270   Biso      1.000     C          -0.17318  
         C25       1.0000    0.06430   0.48870   0.92840   Biso      1.000     C          0.081508  
         C26       1.0000    0.88160   0.46360   0.61620   Biso      1.000     C          0.084315  
         C27       1.0000    0.92790   0.43310   0.67970   Biso      1.000     C          -0.181989           
         C28       1.0000    0.51200   0.64540   0.67950   Biso      1.000     C          0.10998   
         C29       1.0000    0.44810   0.59390   0.62400   Biso      1.000     C          0.104394  
         C30       1.0000    0.46280   0.50760   0.59770   Biso      1.000     C          -0.179598           
         C31       1.0000    0.40250   0.46130   0.55090   Biso      1.000     C          0.091233  
         C32       1.0000    0.62770   0.65030   0.77800   Biso      1.000     C          0.086002  
         C33       1.0000    0.69340   0.42400   0.44760   Biso      1.000     C          0.08372   
         C34       1.0000    0.63470   0.37070   0.39980   Biso      1.000     C          -0.19361  
         C35       1.0000    0.55190   0.40610   0.37600   Biso      1.000     C          0.104394  
         C36       1.0000    0.53720   0.49240   0.40230   Biso      1.000     C          -0.179599           
         C37       1.0000    0.59750   0.53870   0.44910   Biso      1.000     C          0.091233  
         C38       1.0000    0.37230   0.34970   0.22200   Biso      1.000     C          0.08596   
         C39       1.0000    0.42630   0.39610   0.27290   Biso      1.000     C          -0.176641           
         C40       1.0000    0.48800   0.35460   0.32050   Biso      1.000     C          0.109976  
         C41       1.0000    0.48270   0.26370   0.31730   Biso      1.000     C          -0.173188           
         C42       1.0000    0.42290   0.21790   0.26640   Biso      1.000     C          0.083352  
         C43       1.0000    0.17980   0.10780   0.25650   Biso      1.000     C          0.09383   
         C44       1.0000    0.11870   0.04990   0.28300   Biso      1.000     C          -0.202968           
         C45       1.0000    0.08730   0.97750   0.23770   Biso      1.000     C          0.107877  
         C46       1.0000    0.12210   0.96550   0.16720   Biso      1.000     C          -0.182635           
         C47       1.0000    0.18000   0.02020   0.14640   Biso      1.000     C          0.069188  
         C48       1.0000    0.81770   0.57390   0.68750   Biso      1.000     C          0.07571   
         C49       1.0000    0.85980   0.54700   0.75050   Biso      1.000     C          -0.16991  
         C50       1.0000    0.91640   0.47400   0.74810   Biso      1.000     C          0.110901  
         C51       1.0000    0.53640   0.11840   0.88380   Biso      1.000     C          0.084315  
         C52       1.0000    0.36530   0.62930   0.60020   Biso      1.000     C          -0.19361  
         C53       1.0000    0.51130   0.93570   0.57160   Biso      1.000     C          0.081503  
         C54       1.0000    0.55010   0.03030   0.68380   Biso      1.000     C          0.108652  
         C55       1.0000    0.53870   0.59750   0.94910   Biso      1.000     C          0.091206  
         C56       1.0000    0.49240   0.53720   0.90230   Biso      1.000     C          -0.179577           
         C57       1.0000    0.40610   0.55190   0.87600   Biso      1.000     C          0.104396  
         C58       1.0000    0.37070   0.63470   0.89980   Biso      1.000     C          -0.193607           
         C59       1.0000    0.42400   0.69340   0.94760   Biso      1.000     C          0.08372   
         C60       1.0000    0.95670   0.65750   0.10910   Biso      1.000     C          0.093324  
         C61       1.0000    0.01260   0.64020   0.17110   Biso      1.000     C          -0.203437           
         C62       1.0000    0.03030   0.55010   0.18380   Biso      1.000     C          0.108652  
         C63       1.0000    0.99000   0.48480   0.13070   Biso      1.000     C          -0.181856           
         C64       1.0000    0.93570   0.51130   0.07160   Biso      1.000     C          0.081509  
         C65       1.0000    0.34970   0.37230   0.72200   Biso      1.000     C          0.085961  
         C66       1.0000    0.11840   0.53640   0.38380   Biso      1.000     C          0.084314  
         C67       1.0000    0.08360   0.52600   0.25190   Biso      1.000     C          0.11089   
         C68       1.0000    0.14020   0.45300   0.24950   Biso      1.000     C          -0.169928           
         C69       1.0000    0.18230   0.42610   0.31250   Biso      1.000     C          0.075732  
         C70       1.0000    0.82000   0.97980   0.85360   Biso      1.000     C          0.069146  
         C71       1.0000    0.87790   0.03450   0.83280   Biso      1.000     C          -0.182594           
         C72       1.0000    0.91270   0.02250   0.76230   Biso      1.000     C          0.107869  
         C73       1.0000    0.88130   0.95010   0.71700   Biso      1.000     C          -0.202964           
         C74       1.0000    0.82020   0.89220   0.74350   Biso      1.000     C          0.09383   
         C75       1.0000    0.57710   0.78210   0.73360   Biso      1.000     C          0.083345  
         C76       1.0000    0.51730   0.73630   0.68270   Biso      1.000     C          -0.173181           
         C77       1.0000    0.07210   0.56690   0.32030   Biso      1.000     C          -0.181974           
         C78       1.0000    0.48480   0.99000   0.63070   Biso      1.000     C          -0.181851           
         C79       1.0000    0.39610   0.42630   0.77290   Biso      1.000     C          -0.176641           
         C80       1.0000    0.26370   0.48270   0.81730   Biso      1.000     C          -0.173192           
         C81       1.0000    0.64020   0.01260   0.67110   Biso      1.000     C          -0.203438           
         C82       1.0000    0.65750   0.95670   0.60910   Biso      1.000     C          0.093324  
         C83       1.0000    0.34250   0.04330   0.39090   Biso      1.000     C          0.093324  
         C84       1.0000    0.35980   0.98740   0.32890   Biso      1.000     C          -0.203436           
         C85       1.0000    0.44990   0.96970   0.31620   Biso      1.000     C          0.108651  
         C86       1.0000    0.35460   0.48800   0.82050   Biso      1.000     C          0.109979  
         C87       1.0000    0.48870   0.06430   0.42840   Biso      1.000     C          0.081503  
         C88       1.0000    0.46360   0.88160   0.11620   Biso      1.000     C          0.084318  
         C89       1.0000    0.43310   0.92790   0.17970   Biso      1.000     C          -0.181989           
         C90       1.0000    0.51520   0.01000   0.36930   Biso      1.000     C          -0.181851           
         C91       1.0000    0.54700   0.85980   0.25050   Biso      1.000     C          -0.169929           
         C92       1.0000    0.57390   0.81770   0.18750   Biso      1.000     C          0.075733  
         C93       1.0000    0.02020   0.18000   0.64640   Biso      1.000     C          0.069146  
         C94       1.0000    0.96550   0.12210   0.66720   Biso      1.000     C          -0.182593           
         C95       1.0000    0.97750   0.08730   0.73770   Biso      1.000     C          0.107868  
         C96       1.0000    0.04990   0.11870   0.78300   Biso      1.000     C          -0.202963           
         C97       1.0000    0.10780   0.17980   0.75650   Biso      1.000     C          0.09383   
         C98       1.0000    0.21790   0.42290   0.76640   Biso      1.000     C          0.083353  
         C99       1.0000    0.47400   0.91640   0.24810   Biso      1.000     C          0.110903  
         C100      1.0000    0.30660   0.57600   0.55240   Biso      1.000     C          0.083721  
         Cu1       1.0000    0.59421   0.77035   0.02747   Biso      1.000     Cu          0.345122  
         Cu2       1.0000    0.71707   0.80791   0.85919   Biso      1.000     Cu          0.353772  
         Cu3       1.0000    0.37232   0.19786   0.51250   Biso      1.000     Cu          0.335559  
         Cu4       1.0000    0.80214   0.62768   0.98750   Biso      1.000     Cu          0.335562  
         Cu5       1.0000    0.22965   0.40579   0.47253   Biso      1.000     Cu          0.345119  
         Cu6       1.0000    0.19209   0.28293   0.64081   Biso      1.000     Cu          0.353773  
         Cu7       1.0000    0.62768   0.80214   0.48750   Biso      1.000     Cu          0.335561  
         Cu8       1.0000    0.80791   0.71707   0.35919   Biso      1.000     Cu          0.353775  
         Cu9       1.0000    0.77035   0.59421   0.52747   Biso      1.000     Cu          0.345122  
         Cu10      1.0000    0.19786   0.37232   0.01250   Biso      1.000     Cu          0.335563  
         Cu11      1.0000    0.28293   0.19209   0.14081   Biso      1.000     Cu          0.353773  
         Cu12      1.0000    0.40579   0.22965   0.97253   Biso      1.000     Cu          0.345124  
         H1        1.0000    0.48030   0.76750   0.65010   Biso      1.000     H          0.120416  
         H2        1.0000    0.09100   0.53240   0.96260   Biso      1.000     H          0.087277  
         H3        1.0000    0.88810   0.43310   0.56980   Biso      1.000     H          0.092173  
         H4        1.0000    0.96640   0.38500   0.67500   Biso      1.000     H          0.124927  
         H5        1.0000    0.85110   0.57770   0.79640   Biso      1.000     H          0.125655  
         H6        1.0000    0.77940   0.62220   0.69150   Biso      1.000     H          0.086557  
         H7        1.0000    0.20100   0.00880   0.09920   Biso      1.000     H          0.084489  
         H8        1.0000    0.10290   0.91670   0.13460   Biso      1.000     H          0.128639  
         H9        1.0000    0.09950   0.06070   0.33090   Biso      1.000     H          0.109675  
         H10       1.0000    0.19890   0.15830   0.28700   Biso      1.000     H          0.080371  
         H11       1.0000    0.42290   0.45810   0.27700   Biso      1.000     H          0.124803  
         H12       1.0000    0.51970   0.23250   0.34990   Biso      1.000     H          0.120416  
         H13       1.0000    0.99980   0.57560   0.86420   Biso      1.000     H          0.137738  
         H14       1.0000    0.25240   0.60060   0.53640   Biso      1.000     H          0.086757  
         H15       1.0000    0.35030   0.68730   0.61610   Biso      1.000     H          0.129079  
         H16       1.0000    0.51600   0.48040   0.61290   Biso      1.000     H          0.122443  
         H17       1.0000    0.41700   0.40380   0.53290   Biso      1.000     H          0.077954  
         H18       1.0000    0.66180   0.61980   0.81320   Biso      1.000     H          0.088458  
         H19       1.0000    0.57710   0.54190   0.72300   Biso      1.000     H          0.124806  
         H20       1.0000    0.42220   0.15580   0.26410   Biso      1.000     H          0.087671  
         H21       1.0000    0.96220   0.31360   0.79640   Biso      1.000     H          0.128005  
         H22       1.0000    0.68730   0.35030   0.11610   Biso      1.000     H          0.129077  
         H23       1.0000    0.60060   0.25240   0.03640   Biso      1.000     H          0.086756  
         H24       1.0000    0.68640   0.03780   0.70360   Biso      1.000     H          0.128005  
         H25       1.0000    0.42440   0.00020   0.63580   Biso      1.000     H          0.137738  
         H26       1.0000    0.46760   0.90900   0.53740   Biso      1.000     H          0.087278  
         H27       1.0000    0.56690   0.11190   0.93020   Biso      1.000     H          0.092173  
         H28       1.0000    0.61500   0.03360   0.82500   Biso      1.000     H          0.124926  
         H29       1.0000    0.42230   0.14890   0.70360   Biso      1.000     H          0.125655  
         H30       1.0000    0.37780   0.22060   0.80850   Biso      1.000     H          0.08656   
         H31       1.0000    0.99120   0.79900   0.40080   Biso      1.000     H          0.084489  
         H32       1.0000    0.05470   0.28290   0.89830   Biso      1.000     H          0.05772   
         H33       1.0000    0.08330   0.89710   0.36540   Biso      1.000     H          0.12864   
         H34       1.0000    0.84170   0.80110   0.21300   Biso      1.000     H          0.080372  
         H35       1.0000    0.84420   0.57780   0.23590   Biso      1.000     H          0.087672  
         H36       1.0000    0.76750   0.48030   0.15010   Biso      1.000     H          0.120416  
         H37       1.0000    0.54190   0.57710   0.22300   Biso      1.000     H          0.124803  
         H38       1.0000    0.61980   0.66180   0.31320   Biso      1.000     H          0.088461  
         H39       1.0000    0.40380   0.41700   0.03290   Biso      1.000     H          0.077954  
         H40       1.0000    0.48040   0.51600   0.11290   Biso      1.000     H          0.122442  
         H41       1.0000    0.57780   0.84420   0.73590   Biso      1.000     H          0.087672  
         H42       1.0000    0.93930   0.90050   0.16910   Biso      1.000     H          0.109674  
         H43       1.0000    0.80110   0.84170   0.71300   Biso      1.000     H          0.080371  
         H44       1.0000    0.89710   0.08330   0.86540   Biso      1.000     H          0.128638  
         H45       1.0000    0.71710   0.94530   0.60170   Biso      1.000     H          0.05772   
         H46       1.0000    0.90050   0.93930   0.66910   Biso      1.000     H          0.109673  
         H47       1.0000    0.00880   0.20100   0.59920   Biso      1.000     H          0.084494  
         H48       1.0000    0.62220   0.77940   0.19150   Biso      1.000     H          0.08656   
         H49       1.0000    0.57770   0.85110   0.29640   Biso      1.000     H          0.125657  
         H50       1.0000    0.38500   0.96640   0.17500   Biso      1.000     H          0.124927  
         H51       1.0000    0.43310   0.88810   0.06980   Biso      1.000     H          0.092174  
         H52       1.0000    0.53240   0.09100   0.46260   Biso      1.000     H          0.087278  
         H53       1.0000    0.57560   0.99980   0.36420   Biso      1.000     H          0.137738  
         H54       1.0000    0.31360   0.96220   0.29640   Biso      1.000     H          0.128005  
         H55       1.0000    0.28290   0.05470   0.39830   Biso      1.000     H          0.057721  
         H56       1.0000    0.33820   0.38020   0.18680   Biso      1.000     H          0.088461  
         H57       1.0000    0.58300   0.59620   0.46710   Biso      1.000     H          0.077954  
         H58       1.0000    0.48400   0.51960   0.38710   Biso      1.000     H          0.122442  
         H59       1.0000    0.64970   0.31270   0.38390   Biso      1.000     H          0.129078  
         H60       1.0000    0.74760   0.39940   0.46360   Biso      1.000     H          0.086756  
         H61       1.0000    0.06070   0.09950   0.83090   Biso      1.000     H          0.109673  
         H62       1.0000    0.15830   0.19890   0.78700   Biso      1.000     H          0.080372  
         H63       1.0000    0.91670   0.10290   0.63460   Biso      1.000     H          0.128637  
         H64       1.0000    0.23250   0.51970   0.84990   Biso      1.000     H          0.120416  
         H65       1.0000    0.79900   0.99120   0.90080   Biso      1.000     H          0.084493  
         H66       1.0000    0.22060   0.37780   0.30850   Biso      1.000     H          0.086556  
         H67       1.0000    0.14890   0.42230   0.20360   Biso      1.000     H          0.125657  
         H68       1.0000    0.03360   0.61500   0.32500   Biso      1.000     H          0.124926  
         H69       1.0000    0.15580   0.42220   0.76410   Biso      1.000     H          0.087671  
         H70       1.0000    0.11190   0.56690   0.43020   Biso      1.000     H          0.092173  
         H71       1.0000    0.00020   0.42440   0.13580   Biso      1.000     H          0.137739  
         H72       1.0000    0.90900   0.46760   0.03740   Biso      1.000     H          0.087278  
         H73       1.0000    0.94530   0.71710   0.10170   Biso      1.000     H          0.05772   
         H74       1.0000    0.39940   0.74760   0.96360   Biso      1.000     H          0.086757  
         H75       1.0000    0.31270   0.64970   0.88390   Biso      1.000     H          0.129077  
         H76       1.0000    0.51960   0.48400   0.88710   Biso      1.000     H          0.122441  
         H77       1.0000    0.59620   0.58300   0.96710   Biso      1.000     H          0.077956  
         H78       1.0000    0.38020   0.33820   0.68680   Biso      1.000     H          0.088461  
         H79       1.0000    0.45810   0.42290   0.77700   Biso      1.000     H          0.124804  
         H80       1.0000    0.03780   0.68640   0.20360   Biso      1.000     H          0.128005  
         I1        1.0000    0.48218   0.75366   0.42961   Biso      1.000     I          -0.52581  
         I2        1.0000    0.75366   0.48218   0.92961   Biso      1.000     I          -0.525811           
         I3        1.0000    0.51782   0.24634   0.57039   Biso      1.000     I          -0.525809           
         I4        1.0000    0.24634   0.51782   0.07039   Biso      1.000     I          -0.525813           
         Mo1       1.0000    0.76698   0.80460   0.00470   Biso      1.000     Mo          0.489745  
         Mo2       1.0000    0.19540   0.23302   0.49530   Biso      1.000     Mo          0.489744  
         Mo3       1.0000    0.80460   0.76698   0.50470   Biso      1.000     Mo          0.489743  
         Mo4       1.0000    0.23302   0.19540   0.99530   Biso      1.000     Mo          0.489745  
         N1        1.0000    0.40150   0.08090   0.43940   Biso      1.000     N          -0.193155           
         N2        1.0000    0.78800   0.90600   0.81000   Biso      1.000     N          -0.206825           
         N3        1.0000    0.17170   0.46550   0.38080   Biso      1.000     N          -0.192383           
         N4        1.0000    0.91910   0.59850   0.06060   Biso      1.000     N          -0.193156           
         N5        1.0000    0.50680   0.67800   0.97170   Biso      1.000     N          -0.191875           
         N6        1.0000    0.25970   0.36490   0.71930   Biso      1.000     N          -0.196221           
         N7        1.0000    0.53450   0.82830   0.11920   Biso      1.000     N          -0.192392           
         N8        1.0000    0.09400   0.21200   0.69000   Biso      1.000     N          -0.206824           
         N9        1.0000    0.67800   0.50680   0.47170   Biso      1.000     N          -0.191879           
         N10       1.0000    0.36490   0.25970   0.21930   Biso      1.000     N          -0.196222           
         N11       1.0000    0.59850   0.91910   0.56060   Biso      1.000     N          -0.193157           
         N12       1.0000    0.46550   0.17170   0.88080   Biso      1.000     N          -0.192389           
         N13       1.0000    0.90600   0.78800   0.31000   Biso      1.000     N          -0.206831           
         N14       1.0000    0.63510   0.74030   0.78070   Biso      1.000     N          -0.196226           
         N15       1.0000    0.74030   0.63510   0.28070   Biso      1.000     N          -0.196221           
         N16       1.0000    0.21200   0.09400   0.19000   Biso      1.000     N          -0.20683  
         N17       1.0000    0.82830   0.53450   0.61920   Biso      1.000     N          -0.192381           
         N18       1.0000    0.08090   0.40150   0.93940   Biso      1.000     N          -0.193158           
         N19       1.0000    0.49320   0.32200   0.02830   Biso      1.000     N          -0.191879           
         N20       1.0000    0.32200   0.49320   0.52830   Biso      1.000     N          -0.191879           
         S1        1.0000    0.64463   0.87475   0.95510   Biso      1.000     S          -0.606118           
         S2        1.0000    0.83653   0.73279   0.91051   Biso      1.000     S          -0.529941           
         S3        1.0000    0.30004   0.28038   0.42382   Biso      1.000     S          -0.500775           
         S4        1.0000    0.26721   0.16347   0.58949   Biso      1.000     S          -0.529955           
         S5        1.0000    0.28038   0.30004   0.92382   Biso      1.000     S          -0.500785           
         S6        1.0000    0.35537   0.12525   0.04490   Biso      1.000     S          -0.606116           
         S7        1.0000    0.16347   0.26721   0.08949   Biso      1.000     S          -0.529939           
         S8        1.0000    0.69996   0.71962   0.57618   Biso      1.000     S          -0.500785           
         S9        1.0000    0.87475   0.64463   0.45510   Biso      1.000     S          -0.606117           
         S10       1.0000    0.73279   0.83653   0.41051   Biso      1.000     S          -0.529938           
         S11       1.0000    0.71962   0.69996   0.07618   Biso      1.000     S          -0.500787           
         S12       1.0000    0.12525   0.35537   0.54490   Biso      1.000     S          -0.606117 