
##########################################################################
#               Crystallographic Information Format file
#               Produced by PyCifRW module
#
#  This is a CIF file.  CIF has been adopted by the International
#  Union of Crystallography as the standard for data archiving and
#  transmission.
#
#  For information on this file format, follow the CIF links at
#  http://www.iucr.org
##########################################################################

data_image0

_cell_length_a                          9.7008
_cell_length_b                          20.8675
_cell_length_c                          24.75
_cell_angle_alpha                       104.531
_cell_angle_beta                        90
_cell_angle_gamma                       103.441
_symmetry_space_group_name_H-M          'P 1'
_symmetry_int_tables_number             1
loop_
  _symmetry_equiv_pos_as_xyz
         'x, y, z' 
loop_
  _atom_site_label
  _atom_site_occupancy
  _atom_site_fract_x
  _atom_site_fract_y
  _atom_site_fract_z
  _atom_site_thermal_displace_type
  _atom_site_B_iso_or_equiv
  _atom_site_type_symbol
  _atom_site_charge
         C1        1.0000    0.01420   0.67820   0.73640   Biso      1.000     C          -0.185006           
         C2        1.0000    0.46218   0.41956   0.56850   Biso      1.000     C          -0.181252           
         C3        1.0000    0.48607   0.35614   0.55310   Biso      1.000     C          0.085911  
         C4        1.0000    0.19250   0.58540   0.55800   Biso      1.000     C          0.095087  
         C5        1.0000    0.20463   0.51966   0.54450   Biso      1.000     C          -0.176607           
         C6        1.0000    0.33344   0.50588   0.55600   Biso      1.000     C          0.101207  
         C7        1.0000    0.44496   0.56272   0.58110   Biso      1.000     C          -0.193806           
         C8        1.0000    0.41834   0.62668   0.59300   Biso      1.000     C          0.084128  
         C9        1.0000    0.16118   0.12996   0.47450   Biso      1.000     C          0.100996  
         C10       1.0000    0.04908   0.07756   0.47350   Biso      1.000     C          -0.188028           
         C11       1.0000    0.06084   0.03128   0.50060   Biso      1.000     C          0.112167  
         C12       1.0000    0.35700   0.43660   0.54040   Biso      1.000     C          0.108804  
         C13       1.0000    0.18390   0.04200   0.53050   Biso      1.000     C          -0.197254           
         C14       1.0000    0.01130   0.21860   0.60350   Biso      1.000     C          0.091325  
         C15       1.0000    0.10185   0.21130   0.64330   Biso      1.000     C          -0.197062           
         C16       1.0000    0.20208   0.26856   0.67310   Biso      1.000     C          0.110302  
         C17       1.0000    0.20630   0.32860   0.65980   Biso      1.000     C          -0.185029           
         C18       1.0000    0.10940   0.33040   0.61980   Biso      1.000     C          0.096258  
         C19       1.0000    0.40920   0.20920   0.77190   Biso      1.000     C          0.079691  
         C20       1.0000    0.33507   0.20794   0.72470   Biso      1.000     C          -0.191907           
         C21       1.0000    0.29192   0.26604   0.71970   Biso      1.000     C          0.102077  
         C22       1.0000    0.33600   0.32180   0.76360   Biso      1.000     C          -0.18473  
         C23       1.0000    0.41960   0.31940   0.80980   Biso      1.000     C          0.092545  
         C24       1.0000    0.29730   0.09580   0.52770   Biso      1.000     C          0.079676  
         C25       1.0000    0.85520   0.44380   0.58660   Biso      1.000     C          0.302024  
         C26       1.0000    0.27306   0.38352   0.50010   Biso      1.000     C          -0.178271           
         C27       1.0000    0.41140   0.55620   0.91340   Biso      1.000     C          0.301006  
         C28       1.0000    0.60710   0.41460   0.94200   Biso      1.000     C          0.095398  
         C29       1.0000    0.12993   0.64386   0.94690   Biso      1.000     C          0.087105  
         C30       1.0000    0.04262   0.58044   0.93150   Biso      1.000     C          -0.181659           
         C31       1.0000    0.92040   0.56340   0.95960   Biso      1.000     C          0.107278  
         C32       1.0000    0.88954   0.61648   0.99990   Biso      1.000     C          -0.178311           
         C33       1.0000    0.98286   0.67972   0.01200   Biso      1.000     C          0.082059  
         C34       1.0000    0.88224   0.43728   0.91890   Biso      1.000     C          -0.191567           
         C35       1.0000    0.79166   0.37332   0.90700   Biso      1.000     C          0.083727  
         C36       1.0000    0.03122   0.87004   0.02550   Biso      1.000     C          0.101826  
         C37       1.0000    0.97152   0.92244   0.02650   Biso      1.000     C          -0.188111           
         C38       1.0000    0.30314   0.32028   0.48800   Biso      1.000     C          0.081844  
         C39       1.0000    0.02956   0.96872   0.99940   Biso      1.000     C          0.113699  
         C40       1.0000    0.20150   0.90420   0.97230   Biso      1.000     C          0.083287  
         C41       1.0000    0.79270   0.78140   0.89650   Biso      1.000     C          0.091492  
         C42       1.0000    0.89055   0.78870   0.85670   Biso      1.000     C          -0.197011           
         C43       1.0000    0.93352   0.73144   0.82690   Biso      1.000     C          0.111442  
         C44       1.0000    0.87770   0.67140   0.84020   Biso      1.000     C          -0.186254           
         C45       1.0000    0.77900   0.66960   0.88020   Biso      1.000     C          0.097402  
         C46       1.0000    0.20000   0.79080   0.72810   Biso      1.000     C          0.079779  
         C47       1.0000    0.12713   0.79206   0.77530   Biso      1.000     C          -0.193507           
         C48       1.0000    0.02588   0.73396   0.78030   Biso      1.000     C          0.103893  
         C49       1.0000    0.10020   0.68060   0.69020   Biso      1.000     C          0.092216  
         C50       1.0000    0.14190   0.95800   0.96950   Biso      1.000     C          -0.200001           
         C51       1.0000    0.01714   0.32028   0.98800   Biso      1.000     C          0.082058  
         C52       1.0000    0.11046   0.38352   0.00010   Biso      1.000     C          -0.17831  
         C53       1.0000    0.07960   0.43660   0.04040   Biso      1.000     C          0.107276  
         C54       1.0000    0.51393   0.64386   0.44690   Biso      1.000     C          0.085897  
         C55       1.0000    0.80750   0.41460   0.44200   Biso      1.000     C          0.09509   
         C56       1.0000    0.79537   0.48034   0.45550   Biso      1.000     C          -0.176606           
         C57       1.0000    0.66656   0.49412   0.44400   Biso      1.000     C          0.101205  
         C58       1.0000    0.55504   0.43728   0.41890   Biso      1.000     C          -0.193801           
         C59       1.0000    0.58166   0.37332   0.40700   Biso      1.000     C          0.084136  
         C60       1.0000    0.83882   0.87004   0.52550   Biso      1.000     C          0.100995  
         C61       1.0000    0.95092   0.92244   0.52650   Biso      1.000     C          -0.18803  
         C62       1.0000    0.93916   0.96872   0.49940   Biso      1.000     C          0.112171  
         C63       1.0000    0.81610   0.95800   0.46950   Biso      1.000     C          -0.197249           
         C64       1.0000    0.53782   0.58044   0.43150   Biso      1.000     C          -0.181243           
         C65       1.0000    0.70270   0.90420   0.47230   Biso      1.000     C          0.079674  
         C66       1.0000    0.89815   0.78870   0.35670   Biso      1.000     C          -0.197059           
         C67       1.0000    0.79792   0.73144   0.32690   Biso      1.000     C          0.110304  
         C68       1.0000    0.79370   0.67140   0.34020   Biso      1.000     C          -0.185027           
         C69       1.0000    0.89060   0.66960   0.38020   Biso      1.000     C          0.096264  
         C70       1.0000    0.59080   0.79080   0.22810   Biso      1.000     C          0.079699  
         C71       1.0000    0.66493   0.79206   0.27530   Biso      1.000     C          -0.1919   
         C72       1.0000    0.70808   0.73396   0.28030   Biso      1.000     C          0.102075  
         C73       1.0000    0.66400   0.67820   0.23640   Biso      1.000     C          -0.184722           
         C74       1.0000    0.58040   0.68060   0.19020   Biso      1.000     C          0.092556  
         C75       1.0000    0.14480   0.55620   0.41340   Biso      1.000     C          0.302024  
         C76       1.0000    0.98870   0.78140   0.39650   Biso      1.000     C          0.091333  
         C77       1.0000    0.64300   0.56340   0.45960   Biso      1.000     C          0.108808  
         C78       1.0000    0.72694   0.61648   0.49990   Biso      1.000     C          -0.17827  
         C79       1.0000    0.69686   0.67972   0.51200   Biso      1.000     C          0.081841  
         C80       1.0000    0.95738   0.41956   0.06850   Biso      1.000     C          -0.181671           
         C81       1.0000    0.87007   0.35614   0.05310   Biso      1.000     C          0.087123  
         C82       1.0000    0.39290   0.58540   0.05800   Biso      1.000     C          0.095396  
         C83       1.0000    0.31503   0.51966   0.04450   Biso      1.000     C          -0.177011           
         C84       1.0000    0.17244   0.50588   0.05600   Biso      1.000     C          0.102752  
         C85       1.0000    0.11776   0.56272   0.08110   Biso      1.000     C          -0.191571           
         C86       1.0000    0.20834   0.62668   0.09300   Biso      1.000     C          0.08372   
         C87       1.0000    0.96878   0.12996   0.97450   Biso      1.000     C          0.101826  
         C88       1.0000    0.02848   0.07756   0.97350   Biso      1.000     C          -0.188109           
         C89       1.0000    0.97044   0.03128   0.00060   Biso      1.000     C          0.113695  
         C90       1.0000    0.85810   0.04200   0.03050   Biso      1.000     C          -0.200007           
         C91       1.0000    0.79850   0.09580   0.02770   Biso      1.000     C          0.083289  
         C92       1.0000    0.20730   0.21860   0.10350   Biso      1.000     C          0.091485  
         C93       1.0000    0.10945   0.21130   0.14330   Biso      1.000     C          -0.197017           
         C94       1.0000    0.06648   0.26856   0.17310   Biso      1.000     C          0.111441  
         C95       1.0000    0.12230   0.32860   0.15980   Biso      1.000     C          -0.186258           
         C96       1.0000    0.22100   0.33040   0.11980   Biso      1.000     C          0.097394  
         C97       1.0000    0.80000   0.20920   0.27190   Biso      1.000     C          0.07977   
         C98       1.0000    0.87287   0.20794   0.22470   Biso      1.000     C          -0.193513           
         C99       1.0000    0.97412   0.26604   0.21970   Biso      1.000     C          0.103883  
         C100      1.0000    0.98580   0.32180   0.26360   Biso      1.000     C          -0.185003           
         C101      1.0000    0.89980   0.31940   0.30980   Biso      1.000     C          0.092203  
         C102      1.0000    0.58860   0.44380   0.08660   Biso      1.000     C          0.301006  
         C103      1.0000    0.68497   0.48034   0.95550   Biso      1.000     C          -0.177011           
         C104      1.0000    0.82756   0.49412   0.94400   Biso      1.000     C          0.10275   
         Cu1       1.0000    0.25205   0.78548   0.01049   Biso      1.000     Cu          0.348443  
         Cu2       1.0000    0.53343   0.78548   0.51049   Biso      1.000     Cu          0.349363  
         Cu3       1.0000    0.56450   0.71034   0.96181   Biso      1.000     Cu          0.429448  
         Cu4       1.0000    0.47427   0.73852   0.10828   Biso      1.000     Cu          0.35764   
         Cu5       1.0000    0.46657   0.21452   0.48951   Biso      1.000     Cu          0.349369  
         Cu6       1.0000    0.85416   0.28966   0.53819   Biso      1.000     Cu          0.429628  
         Cu7       1.0000    0.73575   0.26148   0.39172   Biso      1.000     Cu          0.35782   
         Cu8       1.0000    0.74795   0.21452   0.98951   Biso      1.000     Cu          0.348439  
         Cu9       1.0000    0.43550   0.28966   0.03819   Biso      1.000     Cu          0.429442  
         Cu10      1.0000    0.52573   0.26148   0.89172   Biso      1.000     Cu          0.357643  
         Cu11      1.0000    0.14584   0.71034   0.46181   Biso      1.000     Cu          0.429633  
         Cu12      1.0000    0.26425   0.73852   0.60828   Biso      1.000     Cu          0.357809  
         H1        1.0000    0.51680   0.45220   0.59820   Biso      1.000     H          0.121621  
         H2        1.0000    0.19690   0.39040   0.48130   Biso      1.000     H          0.127685  
         H3        1.0000    0.24470   0.28540   0.46090   Biso      1.000     H          0.088911  
         H4        1.0000    0.68910   0.63780   0.23670   Biso      1.000     H          0.124057  
         H5        1.0000    0.94870   0.63780   0.73670   Biso      1.000     H          0.123523  
         H6        1.0000    0.55970   0.34720   0.57180   Biso      1.000     H          0.096676  
         H7        1.0000    0.09510   0.64040   0.66250   Biso      1.000     H          0.086108  
         H8        1.0000    0.10590   0.59340   0.54910   Biso      1.000     H          0.081678  
         H9        1.0000    0.19310   0.01360   0.55310   Biso      1.000     H          0.113753  
         H10       1.0000    0.53420   0.55700   0.58950   Biso      1.000     H          0.12652   
         H11       1.0000    0.49270   0.66380   0.60930   Biso      1.000     H          0.088769  
         H12       1.0000    0.14730   0.16220   0.45630   Biso      1.000     H          0.083381  
         H13       1.0000    0.96430   0.07380   0.45410   Biso      1.000     H          0.103771  
         H14       1.0000    0.14460   0.83160   0.80440   Biso      1.000     H          0.124593  
         H15       1.0000    0.38280   0.10080   0.54710   Biso      1.000     H          0.090437  
         H16       1.0000    0.12760   0.48440   0.52770   Biso      1.000     H          0.131725  
         H17       1.0000    0.26380   0.83080   0.72620   Biso      1.000     H          0.089606  
         H18       1.0000    0.17950   0.98640   0.94690   Biso      1.000     H          0.11384   
         H19       1.0000    0.90590   0.63200   0.82240   Biso      1.000     H          0.132065  
         H20       1.0000    0.95930   0.71460   0.03910   Biso      1.000     H          0.089497  
         H21       1.0000    0.80650   0.60960   0.01870   Biso      1.000     H          0.128017  
         H22       1.0000    0.06460   0.54780   0.90180   Biso      1.000     H          0.12156   
         H23       1.0000    0.21250   0.65280   0.92820   Biso      1.000     H          0.096742  
         H24       1.0000    0.51250   0.40660   0.95090   Biso      1.000     H          0.081374  
         H25       1.0000    0.64320   0.51560   0.97230   Biso      1.000     H          0.131528  
         H26       1.0000    0.73970   0.62780   0.88770   Biso      1.000     H          0.092306  
         H27       1.0000    0.97720   0.44300   0.91050   Biso      1.000     H          0.124928  
         H28       1.0000    0.98510   0.83780   0.04370   Biso      1.000     H          0.082794  
         H29       1.0000    0.89050   0.92620   0.04590   Biso      1.000     H          0.103198  
         H30       1.0000    0.94460   0.18000   0.58400   Biso      1.000     H          0.077121  
         H31       1.0000    0.28200   0.89920   0.95290   Biso      1.000     H          0.08901   
         H32       1.0000    0.54530   0.64040   0.16250   Biso      1.000     H          0.086524  
         H33       1.0000    0.92700   0.83100   0.84990   Biso      1.000     H          0.125979  
         H34       1.0000    0.82890   0.33620   0.89070   Biso      1.000     H          0.088512  
         H35       1.0000    0.09600   0.16900   0.65010   Biso      1.000     H          0.126994  
         H36       1.0000    0.76460   0.82000   0.91600   Biso      1.000     H          0.077915  
         H37       1.0000    0.11190   0.37220   0.61230   Biso      1.000     H          0.092529  
         H38       1.0000    0.90490   0.35960   0.33750   Biso      1.000     H          0.086101  
         H39       1.0000    0.75530   0.71460   0.53910   Biso      1.000     H          0.08891   
         H40       1.0000    0.80310   0.60960   0.51870   Biso      1.000     H          0.127686  
         H41       1.0000    0.48320   0.54780   0.40180   Biso      1.000     H          0.121627  
         H42       1.0000    0.44030   0.65280   0.42820   Biso      1.000     H          0.096678  
         H43       1.0000    0.89410   0.40660   0.45090   Biso      1.000     H          0.081681  
         H44       1.0000    0.87240   0.51560   0.47230   Biso      1.000     H          0.131723  
         H45       1.0000    0.46580   0.44300   0.41050   Biso      1.000     H          0.126522  
         H46       1.0000    0.50730   0.33620   0.39070   Biso      1.000     H          0.088774  
         H47       1.0000    0.85270   0.83780   0.54370   Biso      1.000     H          0.083381  
         H48       1.0000    0.03570   0.92620   0.54590   Biso      1.000     H          0.103775  
         H49       1.0000    0.80690   0.98640   0.44690   Biso      1.000     H          0.113754  
         H50       1.0000    0.61720   0.89920   0.45290   Biso      1.000     H          0.090438  
         H51       1.0000    0.05540   0.82000   0.41600   Biso      1.000     H          0.077129  
         H52       1.0000    0.27390   0.36800   0.67760   Biso      1.000     H          0.132211  
         H53       1.0000    0.72610   0.63200   0.32240   Biso      1.000     H          0.132223  
         H54       1.0000    0.88810   0.62780   0.38770   Biso      1.000     H          0.092538  
         H55       1.0000    0.56700   0.83080   0.22620   Biso      1.000     H          0.088831  
         H56       1.0000    0.68700   0.83160   0.30440   Biso      1.000     H          0.124853  
         H57       1.0000    0.05130   0.36220   0.26330   Biso      1.000     H          0.123515  
         H58       1.0000    0.85540   0.16840   0.19560   Biso      1.000     H          0.124584  
         H59       1.0000    0.90400   0.83100   0.34990   Biso      1.000     H          0.127011  
         H60       1.0000    0.26030   0.37220   0.11230   Biso      1.000     H          0.092298  
         H61       1.0000    0.73620   0.16920   0.27380   Biso      1.000     H          0.089585  
         H62       1.0000    0.43300   0.16920   0.77380   Biso      1.000     H          0.088809  
         H63       1.0000    0.31300   0.16840   0.69560   Biso      1.000     H          0.124844  
         H64       1.0000    0.31090   0.36220   0.76330   Biso      1.000     H          0.12405   
         H65       1.0000    0.04070   0.28540   0.96090   Biso      1.000     H          0.089499  
         H66       1.0000    0.19350   0.39040   0.98130   Biso      1.000     H          0.128016  
         H67       1.0000    0.93540   0.45220   0.09820   Biso      1.000     H          0.121554  
         H68       1.0000    0.78750   0.34720   0.07180   Biso      1.000     H          0.09674   
         H69       1.0000    0.48750   0.59340   0.04910   Biso      1.000     H          0.081371  
         H70       1.0000    0.35680   0.48440   0.02770   Biso      1.000     H          0.13153   
         H71       1.0000    0.02280   0.55700   0.08950   Biso      1.000     H          0.124925  
         H72       1.0000    0.45470   0.35960   0.83750   Biso      1.000     H          0.086518  
         H73       1.0000    0.71800   0.10080   0.04710   Biso      1.000     H          0.08901   
         H74       1.0000    0.07300   0.16900   0.15010   Biso      1.000     H          0.125964  
         H75       1.0000    0.23540   0.18000   0.08400   Biso      1.000     H          0.077908  
         H76       1.0000    0.82050   0.01360   0.05310   Biso      1.000     H          0.113838  
         H77       1.0000    0.10950   0.07380   0.95410   Biso      1.000     H          0.103194  
         H78       1.0000    0.09410   0.36800   0.17760   Biso      1.000     H          0.132053  
         H79       1.0000    0.01490   0.16220   0.95630   Biso      1.000     H          0.082793  
         H80       1.0000    0.17110   0.66380   0.10930   Biso      1.000     H          0.088508  
         Mo1       1.0000    0.29013   0.82110   0.54004   Biso      1.000     Mo          0.492592  
         Mo2       1.0000    0.46903   0.17890   0.95996   Biso      1.000     Mo          0.49177   
         Mo3       1.0000    0.70987   0.17890   0.45996   Biso      1.000     Mo          0.492542  
         Mo4       1.0000    0.53097   0.82110   0.04004   Biso      1.000     Mo          0.491811  
         N1        1.0000    0.40863   0.30546   0.51210   Biso      1.000     N          -0.192719           
         N2        1.0000    0.89683   0.30546   0.01210   Biso      1.000     N          -0.194327           
         N3        1.0000    0.29492   0.63884   0.58300   Biso      1.000     N          -0.191242           
         N4        1.0000    0.28890   0.14040   0.49850   Biso      1.000     N          -0.182978           
         N5        1.0000    0.01309   0.27638   0.59120   Biso      1.000     N          -0.196486           
         N6        1.0000    0.44975   0.26250   0.81500   Biso      1.000     N          -0.181348           
         N7        1.0000    0.86869   0.38978   0.56950   Biso      1.000     N          -0.486064           
         N8        1.0000    0.47891   0.61022   0.93050   Biso      1.000     N          -0.484648           
         N9        1.0000    0.52109   0.38978   0.06950   Biso      1.000     N          -0.484642           
         N10       1.0000    0.85150   0.14040   0.99850   Biso      1.000     N          -0.183306           
         N11       1.0000    0.26329   0.27638   0.09120   Biso      1.000     N          -0.197167           
         N12       1.0000    0.81275   0.26250   0.31500   Biso      1.000     N          -0.180358           
         N13       1.0000    0.59137   0.69454   0.48790   Biso      1.000     N          -0.192718           
         N14       1.0000    0.70508   0.36116   0.41700   Biso      1.000     N          -0.191233           
         N15       1.0000    0.71110   0.85960   0.50150   Biso      1.000     N          -0.182983           
         N16       1.0000    0.18725   0.73750   0.68500   Biso      1.000     N          -0.180359           
         N17       1.0000    0.98691   0.72362   0.40880   Biso      1.000     N          -0.196487           
         N18       1.0000    0.34392   0.63884   0.08300   Biso      1.000     N          -0.190969           
         N19       1.0000    0.73671   0.72362   0.90880   Biso      1.000     N          -0.197166           
         N20       1.0000    0.13131   0.61022   0.43050   Biso      1.000     N          -0.48607  
         N21       1.0000    0.65608   0.36116   0.91700   Biso      1.000     N          -0.190961           
         N22       1.0000    0.10317   0.69454   0.98790   Biso      1.000     N          -0.194329           
         N23       1.0000    0.55025   0.73750   0.18500   Biso      1.000     N          -0.181351           
         N24       1.0000    0.14850   0.85960   0.00150   Biso      1.000     N          -0.183313           
         S1        1.0000    0.43304   0.78534   0.95146   Biso      1.000     S          -0.534623           
         S2        1.0000    0.65994   0.74740   0.05145   Biso      1.000     S          -0.590081           
         S3        1.0000    0.35230   0.81572   0.09939   Biso      1.000     S          -0.58827  
         S4        1.0000    0.31909   0.47818   0.88875   Biso      1.000     S          -0.442276           
         S5        1.0000    0.64770   0.21466   0.54854   Biso      1.000     S          -0.535903           
         S6        1.0000    0.91254   0.25260   0.44855   Biso      1.000     S          -0.589633           
         S7        1.0000    0.56696   0.21466   0.04854   Biso      1.000     S          -0.534631           
         S8        1.0000    0.34006   0.25260   0.94855   Biso      1.000     S          -0.590091           
         S9        1.0000    0.64770   0.18428   0.90061   Biso      1.000     S          -0.588301           
         S10       1.0000    0.68091   0.52182   0.11125   Biso      1.000     S          -0.44231  
         S11       1.0000    0.35230   0.78534   0.45146   Biso      1.000     S          -0.535894           
         S12       1.0000    0.08746   0.74740   0.55145   Biso      1.000     S          -0.58962  
         S13       1.0000    0.46342   0.81572   0.59939   Biso      1.000     S          -0.589263           
         S14       1.0000    0.15909   0.47818   0.38875   Biso      1.000     S          -0.442084           
         S15       1.0000    0.53658   0.18428   0.40061   Biso      1.000     S          -0.589305           
         S16       1.0000    0.84091   0.52182   0.61125   Biso      1.000     S          -0.442119 