
##########################################################################
#               Crystallographic Information Format file
#               Produced by PyCifRW module
#
#  This is a CIF file.  CIF has been adopted by the International
#  Union of Crystallography as the standard for data archiving and
#  transmission.
#
#  For information on this file format, follow the CIF links at
#  http://www.iucr.org
##########################################################################

data_image0

_cell_length_a                          8.8737
_cell_length_b                          8.8737
_cell_length_c                          14.0404
_cell_angle_alpha                       78.3882
_cell_angle_beta                        78.3882
_cell_angle_gamma                       81.4905
_symmetry_space_group_name_H-M          'P 1'
_symmetry_int_tables_number             1
loop_
  _symmetry_equiv_pos_as_xyz
         'x, y, z' 
loop_
  _atom_site_label
  _atom_site_occupancy
  _atom_site_fract_x
  _atom_site_fract_y
  _atom_site_fract_z
  _atom_site_thermal_displace_type
  _atom_site_B_iso_or_equiv
  _atom_site_type_symbol
  _atom_site_charge
         C1        1.0000    0.17570   0.36050   0.90770   Biso      1.000     C          -0.185253           
         C2        1.0000    0.65630   0.85330   0.39110   Biso      1.000     C          0.11108599999999999           
         C3        1.0000    0.64700   0.84920   0.29430   Biso      1.000     C          -0.178696           
         C4        1.0000    0.63950   0.82430   0.09230   Biso      1.000     C          -0.185248           
         C5        1.0000    0.64120   0.81280   0.99370   Biso      1.000     C          0.125588  
         C6        1.0000    0.74300   0.74300   0.24600   Biso      1.000     C          0.11091300000000001           
         C7        1.0000    0.36050   0.17570   0.90770   Biso      1.000     C          -0.185254           
         C8        1.0000    0.95940   0.26020   0.33370   Biso      1.000     C          0.6435529999999999  
         C9        1.0000    0.15080   0.35300   0.70570   Biso      1.000     C          -0.178695           
         C10       1.0000    0.79060   0.24660   0.34530   Biso      1.000     C          -0.183017           
         C11       1.0000    0.73980   0.04060   0.66630   Biso      1.000     C          0.643552  
         C12       1.0000    0.71940   0.25360   0.27170   Biso      1.000     C          -0.198323           
         C13       1.0000    0.26570   0.26570   0.85890   Biso      1.000     C          0.13906   
         C14       1.0000    0.25700   0.25700   0.75400   Biso      1.000     C          0.110909  
         C15       1.0000    0.18720   0.35880   0.00630   Biso      1.000     C          0.12559   
         C16       1.0000    0.24380   0.55040   0.28360   Biso      1.000     C          0.645726  
         C17       1.0000    0.25360   0.71940   0.27170   Biso      1.000     C          -0.19836700000000002          
         C18       1.0000    0.24660   0.79060   0.34530   Biso      1.000     C          -0.182973           
         C19       1.0000    0.26020   0.95940   0.33370   Biso      1.000     C          0.64355   
         C20       1.0000    0.34370   0.14670   0.60890   Biso      1.000     C          0.11108499999999999           
         C21       1.0000    0.35300   0.15080   0.70570   Biso      1.000     C          -0.17868699999999998          
         C22       1.0000    0.55040   0.24380   0.28360   Biso      1.000     C          0.645722  
         C23       1.0000    0.75340   0.20940   0.65470   Biso      1.000     C          -0.183017           
         C24       1.0000    0.73430   0.73430   0.14110   Biso      1.000     C          0.139005  
         C25       1.0000    0.75620   0.44960   0.71640   Biso      1.000     C          0.645722  
         C26       1.0000    0.14670   0.34370   0.60890   Biso      1.000     C          0.11108499999999999           
         C27       1.0000    0.74640   0.28060   0.72830   Biso      1.000     C          -0.198322           
         C28       1.0000    0.44960   0.75620   0.71640   Biso      1.000     C          0.645726  
         C29       1.0000    0.28060   0.74640   0.72830   Biso      1.000     C          -0.19836700000000002          
         C30       1.0000    0.20940   0.75340   0.65470   Biso      1.000     C          -0.182973           
         C31       1.0000    0.35880   0.18720   0.00630   Biso      1.000     C          0.12559   
         C32       1.0000    0.85330   0.65630   0.39110   Biso      1.000     C          0.11108499999999999           
         C33       1.0000    0.82430   0.63950   0.09230   Biso      1.000     C          -0.185194           
         C34       1.0000    0.84920   0.64700   0.29430   Biso      1.000     C          -0.178688           
         C35       1.0000    0.04060   0.73980   0.66630   Biso      1.000     C          0.64355   
         C36       1.0000    0.81280   0.64120   0.99370   Biso      1.000     C          0.125582  
         H1        1.0000    0.26830   0.76810   0.58980   Biso      1.000     H          0.13631   
         H2        1.0000    0.92550   0.58670   0.42460   Biso      1.000     H          0.1043    
         H3        1.0000    0.92000   0.57440   0.26170   Biso      1.000     H          0.12696   
         H4        1.0000    0.89910   0.56810   0.12260   Biso      1.000     H          0.120644  
         H5        1.0000    0.43200   0.11720   0.03890   Biso      1.000     H          0.06357   
         H6        1.0000    0.10090   0.43190   0.87740   Biso      1.000     H          0.120649  
         H7        1.0000    0.08000   0.42560   0.73830   Biso      1.000     H          0.12696   
         H8        1.0000    0.07450   0.41330   0.57540   Biso      1.000     H          0.1043    
         H9        1.0000    0.73170   0.23190   0.41020   Biso      1.000     H          0.13631300000000002           
         H10       1.0000    0.77860   0.26560   0.20680   Biso      1.000     H          0.129686  
         H11       1.0000    0.22140   0.73440   0.79320   Biso      1.000     H          0.129689  
         H12       1.0000    0.11720   0.43200   0.03890   Biso      1.000     H          0.06357   
         H13       1.0000    0.42560   0.08000   0.73830   Biso      1.000     H          0.12696   
         H14       1.0000    0.41330   0.07450   0.57540   Biso      1.000     H          0.1043    
         H15       1.0000    0.23190   0.73170   0.41020   Biso      1.000     H          0.13631   
         H16       1.0000    0.26560   0.77860   0.20680   Biso      1.000     H          0.129689  
         H17       1.0000    0.73440   0.22140   0.79320   Biso      1.000     H          0.129686  
         H18       1.0000    0.76810   0.26830   0.58980   Biso      1.000     H          0.13631300000000002           
         H19       1.0000    0.58670   0.92550   0.42460   Biso      1.000     H          0.1043    
         H20       1.0000    0.57440   0.92000   0.26170   Biso      1.000     H          0.12696   
         H21       1.0000    0.56810   0.89910   0.12260   Biso      1.000     H          0.120648  
         H22       1.0000    0.56800   0.88280   0.96110   Biso      1.000     H          0.063571  
         H23       1.0000    0.43190   0.10090   0.87740   Biso      1.000     H          0.120649  
         H24       1.0000    0.88280   0.56800   0.96110   Biso      1.000     H          0.063571  
         N1        1.0000    0.24060   0.24060   0.56120   Biso      1.000     N          -0.195481           
         N2        1.0000    0.27550   0.27550   0.05460   Biso      1.000     N          -0.15279  
         N3        1.0000    0.72450   0.72450   0.94540   Biso      1.000     N          -0.152789           
         N4        1.0000    0.75940   0.75940   0.43880   Biso      1.000     N          -0.195481           
         O1        1.0000    0.74700   0.99000   0.58840   Biso      1.000     O          -0.5348649999999999           
         O2        1.0000    0.25570   0.49810   0.20420   Biso      1.000     O          -0.577925           
         O3        1.0000    0.27820   0.03540   0.24740   Biso      1.000     O          -0.582208           
         O4        1.0000    0.47210   0.22790   0.36780   Biso      1.000     O          -0.557316           
         O5        1.0000    0.49810   0.25570   0.20420   Biso      1.000     O          -0.577926           
         O6        1.0000    0.22790   0.47210   0.36780   Biso      1.000     O          -0.5573170000000001           
         O7        1.0000    0.25300   0.01000   0.41160   Biso      1.000     O          -0.534867           
         O8        1.0000    0.01000   0.25300   0.41160   Biso      1.000     O          -0.5348649999999999           
         O9        1.0000    0.03540   0.27820   0.24740   Biso      1.000     O          -0.582209           
         O10       1.0000    0.72180   0.96460   0.75260   Biso      1.000     O          -0.582209           
         O11       1.0000    0.74430   0.50190   0.79580   Biso      1.000     O          -0.577926           
         O12       1.0000    0.77210   0.52790   0.63220   Biso      1.000     O          -0.557316           
         O13       1.0000    0.99000   0.74700   0.58840   Biso      1.000     O          -0.534866           
         O14       1.0000    0.96460   0.72180   0.75260   Biso      1.000     O          -0.582209           
         O15       1.0000    0.50190   0.74430   0.79580   Biso      1.000     O          -0.577925           
         O16       1.0000    0.52790   0.77210   0.63220   Biso      1.000     O          -0.557316           
         Zn1       1.0000    0.23846   0.23846   0.41736   Biso      1.000     Zn          0.8344030000000001  
         Zn2       1.0000    0.73108   0.73108   0.79925   Biso      1.000     Zn          0.8442459999999999  
         Zn3       1.0000    0.26892   0.26892   0.20075   Biso      1.000     Zn          0.8442440000000001  
         Zn4       1.0000    0.76154   0.76154   0.58264   Biso      1.000     Zn          0.8344010000000001 