
##########################################################################
#               Crystallographic Information Format file
#               Produced by PyCifRW module
#
#  This is a CIF file.  CIF has been adopted by the International
#  Union of Crystallography as the standard for data archiving and
#  transmission.
#
#  For information on this file format, follow the CIF links at
#  http://www.iucr.org
##########################################################################

data_image0

_cell_length_a                          12.8
_cell_length_b                          12.8
_cell_length_c                          9.984
_cell_angle_alpha                       90
_cell_angle_beta                        90
_cell_angle_gamma                       90
_symmetry_space_group_name_H-M          'P 1'
_symmetry_int_tables_number             1
loop_
  _symmetry_equiv_pos_as_xyz
         'x, y, z' 
loop_
  _atom_site_label
  _atom_site_occupancy
  _atom_site_fract_x
  _atom_site_fract_y
  _atom_site_fract_z
  _atom_site_thermal_displace_type
  _atom_site_B_iso_or_equiv
  _atom_site_type_symbol
  _atom_site_charge
         C1        1.0000    0.75180   0.69400   0.03630   Biso      1.000     C          0.078419  
         C2        1.0000    0.27440   0.17540   0.36750   Biso      1.000     C          0.130104  
         C3        1.0000    0.19560   0.22470   0.29610   Biso      1.000     C          -0.220615           
         C4        1.0000    0.14740   0.31040   0.34940   Biso      1.000     C          0.04539   
         C5        1.0000    0.31840   0.07410   0.32160   Biso      1.000     C          -0.12473  
         C6        1.0000    0.48460   0.13550   0.21400   Biso      1.000     C          0.039675999999999996          
         C7        1.0000    0.52200   0.07110   0.09430   Biso      1.000     C          0.561561  
         C8        1.0000    0.86450   0.48460   0.46400   Biso      1.000     C          0.039675999999999996          
         C9        1.0000    0.92590   0.31840   0.57160   Biso      1.000     C          -0.124731           
         C10       1.0000    0.30600   0.75180   0.28630   Biso      1.000     C          0.078419  
         C11       1.0000    0.21820   0.70080   0.24200   Biso      1.000     C          -0.22342800000000002          
         C12       1.0000    0.17540   0.72560   0.11750   Biso      1.000     C          0.130105  
         C13       1.0000    0.22470   0.80440   0.04610   Biso      1.000     C          -0.220615           
         C14       1.0000    0.31040   0.85260   0.09940   Biso      1.000     C          0.045391  
         C15       1.0000    0.07410   0.68160   0.07160   Biso      1.000     C          -0.12473  
         C16       1.0000    0.13550   0.51540   0.96400   Biso      1.000     C          0.039675999999999996          
         C17       1.0000    0.19060   0.41910   0.02620   Biso      1.000     C          -0.49454  
         C18       1.0000    0.07110   0.47800   0.84430   Biso      1.000     C          0.561561  
         C19       1.0000    0.68960   0.14740   0.59940   Biso      1.000     C          0.045385  
         C20       1.0000    0.77530   0.19560   0.54610   Biso      1.000     C          -0.220611           
         C21       1.0000    0.69400   0.24820   0.78630   Biso      1.000     C          0.078419  
         C22       1.0000    0.78180   0.29920   0.74200   Biso      1.000     C          -0.223429           
         C23       1.0000    0.29920   0.21820   0.49200   Biso      1.000     C          -0.223433           
         C24       1.0000    0.24820   0.30600   0.53630   Biso      1.000     C          0.07842400000000001           
         C25       1.0000    0.58090   0.19060   0.27620   Biso      1.000     C          -0.494541           
         C26       1.0000    0.51540   0.86450   0.71400   Biso      1.000     C          0.039675  
         C27       1.0000    0.70080   0.78180   0.99200   Biso      1.000     C          -0.22342800000000002          
         C28       1.0000    0.72560   0.82460   0.86750   Biso      1.000     C          0.130107  
         C29       1.0000    0.80440   0.77530   0.79610   Biso      1.000     C          -0.220615           
         C30       1.0000    0.85260   0.68960   0.84940   Biso      1.000     C          0.045393  
         C31       1.0000    0.68160   0.92590   0.82160   Biso      1.000     C          -0.124731           
         C32       1.0000    0.80940   0.58090   0.52620   Biso      1.000     C          -0.49454  
         C33       1.0000    0.41910   0.80940   0.77620   Biso      1.000     C          -0.49454  
         C34       1.0000    0.47800   0.92890   0.59430   Biso      1.000     C          0.5615600000000001  
         C35       1.0000    0.82460   0.27440   0.61750   Biso      1.000     C          0.130107  
         C36       1.0000    0.92890   0.52200   0.34430   Biso      1.000     C          0.5615600000000001  
         H1        1.0000    0.29100   0.05950   0.23300   Biso      1.000     H          0.104689  
         H2        1.0000    0.05950   0.70900   0.98300   Biso      1.000     H          0.104689  
         H3        1.0000    0.01970   0.70680   0.13090   Biso      1.000     H          0.127349  
         H4        1.0000    0.54160   0.91150   0.89590   Biso      1.000     H          0.263167  
         H5        1.0000    0.18820   0.56570   0.93360   Biso      1.000     H          0.082687  
         H6        1.0000    0.82420   0.80040   0.71240   Biso      1.000     H          0.12559700000000001           
         H7        1.0000    0.24490   0.44210   0.08560   Biso      1.000     H          0.162893  
         H8        1.0000    0.22030   0.37720   0.95620   Biso      1.000     H          0.168828  
         H9        1.0000    0.14060   0.37840   0.07540   Biso      1.000     H          0.148705  
         H10       1.0000    0.35030   0.18720   0.54500   Biso      1.000     H          0.11240499999999999           
         H11       1.0000    0.65990   0.09270   0.55130   Biso      1.000     H          0.074264  
         H12       1.0000    0.77970   0.62280   0.45620   Biso      1.000     H          0.168829  
         H13       1.0000    0.08850   0.54160   0.14590   Biso      1.000     H          0.26316799999999996           
         H14       1.0000    0.80040   0.17580   0.46240   Biso      1.000     H          0.12559700000000001           
         H15       1.0000    0.64970   0.81280   0.04500   Biso      1.000     H          0.112403  
         H16       1.0000    0.91150   0.45840   0.64590   Biso      1.000     H          0.26316799999999996           
         H17       1.0000    0.26680   0.33290   0.61950   Biso      1.000     H          0.08978799999999999           
         H18       1.0000    0.66710   0.26680   0.86950   Biso      1.000     H          0.08978799999999999           
         H19       1.0000    0.73320   0.66710   0.11950   Biso      1.000     H          0.08978799999999999           
         H20       1.0000    0.90730   0.65990   0.80130   Biso      1.000     H          0.074265  
         H21       1.0000    0.34010   0.90730   0.05130   Biso      1.000     H          0.074265  
         H22       1.0000    0.85940   0.62160   0.57540   Biso      1.000     H          0.148705  
         H23       1.0000    0.19960   0.82420   0.96240   Biso      1.000     H          0.12559800000000002           
         H24       1.0000    0.29320   0.01970   0.38090   Biso      1.000     H          0.127349  
         H25       1.0000    0.37840   0.85940   0.82540   Biso      1.000     H          0.148705  
         H26       1.0000    0.43430   0.18820   0.18360   Biso      1.000     H          0.082687  
         H27       1.0000    0.81280   0.35030   0.79500   Biso      1.000     H          0.11240399999999999           
         H28       1.0000    0.55790   0.24490   0.33560   Biso      1.000     H          0.162893  
         H29       1.0000    0.62280   0.22030   0.20620   Biso      1.000     H          0.168829  
         H30       1.0000    0.62160   0.14060   0.32540   Biso      1.000     H          0.148705  
         H31       1.0000    0.37720   0.77970   0.70620   Biso      1.000     H          0.168829  
         H32       1.0000    0.81180   0.43430   0.43360   Biso      1.000     H          0.082687  
         H33       1.0000    0.44210   0.75510   0.83560   Biso      1.000     H          0.162893  
         H34       1.0000    0.45840   0.08850   0.39590   Biso      1.000     H          0.26316799999999996           
         H35       1.0000    0.98030   0.29320   0.63090   Biso      1.000     H          0.127349  
         H36       1.0000    0.94050   0.29100   0.48300   Biso      1.000     H          0.10469   
         H37       1.0000    0.56570   0.81180   0.68360   Biso      1.000     H          0.082687  
         H38       1.0000    0.33290   0.73320   0.36950   Biso      1.000     H          0.08978799999999999           
         H39       1.0000    0.17580   0.19960   0.21240   Biso      1.000     H          0.12559800000000002           
         H40       1.0000    0.18720   0.64970   0.29500   Biso      1.000     H          0.11240399999999999           
         H41       1.0000    0.70680   0.98030   0.88090   Biso      1.000     H          0.127349  
         H42       1.0000    0.70900   0.94050   0.73300   Biso      1.000     H          0.10469   
         H43       1.0000    0.09270   0.34010   0.30130   Biso      1.000     H          0.074265  
         H44       1.0000    0.75510   0.55790   0.58560   Biso      1.000     H          0.162893  
         N1        1.0000    0.93290   0.43450   0.56560   Biso      1.000     N          -0.316337           
         N2        1.0000    0.06710   0.56550   0.06560   Biso      1.000     N          -0.316335           
         N3        1.0000    0.35500   0.82610   0.21800   Biso      1.000     N          -0.19831400000000002          
         N4        1.0000    0.64500   0.17390   0.71800   Biso      1.000     N          -0.19831500000000002          
         N5        1.0000    0.43450   0.06710   0.31560   Biso      1.000     N          -0.316338           
         N6        1.0000    0.17390   0.35500   0.46800   Biso      1.000     N          -0.19831700000000002          
         N7        1.0000    0.56550   0.93290   0.81560   Biso      1.000     N          -0.316339           
         N8        1.0000    0.82610   0.64500   0.96800   Biso      1.000     N          -0.198312           
         O1        1.0000    0.97390   0.47800   0.84960   Biso      1.000     O          -0.5103949999999999           
         O2        1.0000    0.87530   0.55450   0.24540   Biso      1.000     O          -0.55686  
         O3        1.0000    0.55450   0.12470   0.99540   Biso      1.000     O          -0.55686  
         O4        1.0000    0.02610   0.52200   0.34960   Biso      1.000     O          -0.5103949999999999           
         O5        1.0000    0.44550   0.87530   0.49540   Biso      1.000     O          -0.5568609999999999           
         O6        1.0000    0.47800   0.02610   0.59960   Biso      1.000     O          -0.5103949999999999           
         O7        1.0000    0.12470   0.44550   0.74540   Biso      1.000     O          -0.5568609999999999           
         O8        1.0000    0.52200   0.97390   0.09960   Biso      1.000     O          -0.510396           
         Zn1       1.0000    0.09028   0.48277   0.54161   Biso      1.000     Zn          0.3297    
         Zn2       1.0000    0.90972   0.51723   0.04161   Biso      1.000     Zn          0.32968800000000004           
         Zn3       1.0000    0.48277   0.90972   0.29161   Biso      1.000     Zn          0.32969499999999996           
         Zn4       1.0000    0.51723   0.09028   0.79161   Biso      1.000     Zn          0.329701 