
##########################################################################
#               Crystallographic Information Format file
#               Produced by PyCifRW module
#
#  This is a CIF file.  CIF has been adopted by the International
#  Union of Crystallography as the standard for data archiving and
#  transmission.
#
#  For information on this file format, follow the CIF links at
#  http://www.iucr.org
##########################################################################

data_image0

_cell_length_a                          6.8727
_cell_length_b                          11.462
_cell_length_c                          24.986
_cell_angle_alpha                       98.79
_cell_angle_beta                        90
_cell_angle_gamma                       90
_symmetry_space_group_name_H-M          'P 1'
_symmetry_int_tables_number             1
loop_
  _symmetry_equiv_pos_as_xyz
         'x, y, z' 
loop_
  _atom_site_label
  _atom_site_occupancy
  _atom_site_fract_x
  _atom_site_fract_y
  _atom_site_fract_z
  _atom_site_thermal_displace_type
  _atom_site_B_iso_or_equiv
  _atom_site_type_symbol
  _atom_site_charge
         Ag1       1.0000    0.13626   0.91774   0.45180   Biso      1.000     Ag          0.62813   
         Ag2       1.0000    0.50473   0.82281   0.55133   Biso      1.000     Ag          0.6641020000000001  
         Ag3       1.0000    0.13626   0.08226   0.04820   Biso      1.000     Ag          0.62813   
         Ag4       1.0000    0.50473   0.17719   0.94867   Biso      1.000     Ag          0.664104  
         Ag5       1.0000    0.86374   0.08226   0.54820   Biso      1.000     Ag          0.62813   
         Ag6       1.0000    0.49527   0.17719   0.44867   Biso      1.000     Ag          0.664103  
         Ag7       1.0000    0.86374   0.91774   0.95180   Biso      1.000     Ag          0.62813   
         Ag8       1.0000    0.49527   0.82281   0.05133   Biso      1.000     Ag          0.6641020000000001  
         C1        1.0000    0.66850   0.65650   0.75590   Biso      1.000     C          -0.310942           
         C2        1.0000    0.40330   0.36050   0.81670   Biso      1.000     C          0.077309  
         C3        1.0000    0.39160   0.23780   0.81100   Biso      1.000     C          -0.139153           
         C4        1.0000    0.27890   0.42530   0.85470   Biso      1.000     C          -0.140405           
         C5        1.0000    0.26410   0.18200   0.84140   Biso      1.000     C          -0.11136300000000002          
         C6        1.0000    0.79730   0.81020   0.33310   Biso      1.000     C          -0.089433           
         C7        1.0000    0.15000   0.37060   0.88540   Biso      1.000     C          -0.101999           
         C8        1.0000    0.78110   0.80460   0.38810   Biso      1.000     C          -0.078658           
         C9        1.0000    0.53940   0.42670   0.78350   Biso      1.000     C          0.15470899999999999           
         C10       1.0000    0.93470   0.74140   0.30250   Biso      1.000     C          -0.13685899999999998          
         C11       1.0000    0.90520   0.73210   0.41220   Biso      1.000     C          -0.133665           
         C12       1.0000    0.14390   0.24840   0.87930   Biso      1.000     C          -0.100553           
         C13       1.0000    0.80050   0.58510   0.78920   Biso      1.000     C          0.15598099999999998           
         C14       1.0000    0.09480   0.73210   0.91220   Biso      1.000     C          -0.133665           
         C15       1.0000    0.95360   0.66550   0.88110   Biso      1.000     C          -0.12331099999999999          
         C16       1.0000    0.93780   0.66700   0.82540   Biso      1.000     C          0.076761  
         C17       1.0000    0.06220   0.66700   0.32540   Biso      1.000     C          0.076761  
         C18       1.0000    0.06530   0.74140   0.80250   Biso      1.000     C          -0.136863           
         C19       1.0000    0.21890   0.80460   0.88810   Biso      1.000     C          -0.078659           
         C20       1.0000    0.15000   0.62940   0.61460   Biso      1.000     C          -0.101997           
         C21       1.0000    0.14390   0.75160   0.62070   Biso      1.000     C          -0.100552           
         C22       1.0000    0.26410   0.81800   0.65860   Biso      1.000     C          -0.111365           
         C23       1.0000    0.27890   0.57470   0.64530   Biso      1.000     C          -0.140404           
         C24       1.0000    0.39160   0.76220   0.68900   Biso      1.000     C          -0.139147           
         C25       1.0000    0.40330   0.63950   0.68330   Biso      1.000     C          0.077309  
         C26       1.0000    0.66850   0.34350   0.74410   Biso      1.000     C          -0.310942           
         C27       1.0000    0.53940   0.57330   0.71650   Biso      1.000     C          0.15470899999999999           
         C28       1.0000    0.67220   0.51090   0.82180   Biso      1.000     C          -0.310041           
         C29       1.0000    0.04640   0.66550   0.38110   Biso      1.000     C          -0.12331099999999999          
         C30       1.0000    0.33150   0.65650   0.25590   Biso      1.000     C          -0.310942           
         C31       1.0000    0.19950   0.58510   0.28920   Biso      1.000     C          0.15598099999999998           
         C32       1.0000    0.58510   0.50000   0.25000   Biso      1.000     C          -0.310419           
         C33       1.0000    0.07470   0.50000   0.25000   Biso      1.000     C          -0.311672           
         C34       1.0000    0.41490   0.50000   0.75000   Biso      1.000     C          -0.31041799999999997          
         C35       1.0000    0.92530   0.50000   0.75000   Biso      1.000     C          -0.311672           
         C36       1.0000    0.85000   0.62940   0.11460   Biso      1.000     C          -0.101998           
         C37       1.0000    0.85610   0.75160   0.12070   Biso      1.000     C          -0.100552           
         C38       1.0000    0.73590   0.81800   0.15860   Biso      1.000     C          -0.11136700000000001          
         C39       1.0000    0.72110   0.57470   0.14530   Biso      1.000     C          -0.140405           
         C40       1.0000    0.60840   0.76220   0.18900   Biso      1.000     C          -0.139148           
         C41       1.0000    0.59670   0.63950   0.18330   Biso      1.000     C          0.077309  
         C42       1.0000    0.33150   0.34350   0.24410   Biso      1.000     C          -0.310942           
         C43       1.0000    0.46060   0.57330   0.21650   Biso      1.000     C          0.15471   
         C44       1.0000    0.19950   0.41490   0.21080   Biso      1.000     C          0.15598099999999998           
         C45       1.0000    0.32780   0.51090   0.32180   Biso      1.000     C          -0.310041           
         C46       1.0000    0.32780   0.48910   0.17820   Biso      1.000     C          -0.310041           
         C47       1.0000    0.06220   0.33300   0.17460   Biso      1.000     C          0.076761  
         C48       1.0000    0.90520   0.26790   0.08780   Biso      1.000     C          -0.133665           
         C49       1.0000    0.93470   0.25860   0.19750   Biso      1.000     C          -0.136863           
         C50       1.0000    0.79730   0.18980   0.16690   Biso      1.000     C          -0.089431           
         C51       1.0000    0.78110   0.19540   0.11190   Biso      1.000     C          -0.078658           
         C52       1.0000    0.85000   0.37060   0.38540   Biso      1.000     C          -0.101997           
         C53       1.0000    0.85610   0.24840   0.37930   Biso      1.000     C          -0.100552           
         C54       1.0000    0.73590   0.18200   0.34140   Biso      1.000     C          -0.111365           
         C55       1.0000    0.72110   0.42530   0.35470   Biso      1.000     C          -0.140403           
         C56       1.0000    0.60840   0.23780   0.31100   Biso      1.000     C          -0.139147           
         C57       1.0000    0.59670   0.36050   0.31670   Biso      1.000     C          0.077309  
         C58       1.0000    0.80050   0.41490   0.71080   Biso      1.000     C          0.15598   
         C59       1.0000    0.46060   0.42670   0.28350   Biso      1.000     C          0.15471   
         C60       1.0000    0.04640   0.33450   0.11890   Biso      1.000     C          -0.12330999999999999          
         C61       1.0000    0.67220   0.48910   0.67820   Biso      1.000     C          -0.310041           
         C62       1.0000    0.20270   0.81020   0.83310   Biso      1.000     C          -0.08943  
         C63       1.0000    0.93780   0.33300   0.67460   Biso      1.000     C          0.076762  
         C64       1.0000    0.09480   0.26790   0.58780   Biso      1.000     C          -0.133665           
         C65       1.0000    0.06530   0.25860   0.69750   Biso      1.000     C          -0.13686199999999998          
         C66       1.0000    0.20270   0.18980   0.66690   Biso      1.000     C          -0.08943  
         C67       1.0000    0.21890   0.19540   0.61190   Biso      1.000     C          -0.078659           
         C68       1.0000    0.95360   0.33450   0.61890   Biso      1.000     C          -0.12331099999999999          
         H1        1.0000    0.10600   0.72800   0.94970   Biso      1.000     H          0.12804000000000001           
         H2        1.0000    0.86650   0.61820   0.89800   Biso      1.000     H          0.12504500000000002           
         H3        1.0000    0.01010   0.45390   0.77100   Biso      1.000     H          0.111345  
         H4        1.0000    0.75610   0.46410   0.84280   Biso      1.000     H          0.118828  
         H5        1.0000    0.58510   0.71050   0.78070   Biso      1.000     H          0.11843800000000002           
         H6        1.0000    0.75030   0.70490   0.73520   Biso      1.000     H          0.11704   
         H7        1.0000    0.28540   0.86080   0.81660   Biso      1.000     H          0.12051300000000001           
         H8        1.0000    0.33010   0.44640   0.72540   Biso      1.000     H          0.11062899999999999           
         H9        1.0000    0.47360   0.19150   0.78550   Biso      1.000     H          0.11976400000000001           
         H10       1.0000    0.28320   0.50910   0.85940   Biso      1.000     H          0.112097  
         H11       1.0000    0.59100   0.56390   0.84770   Biso      1.000     H          0.12303499999999999           
         H12       1.0000    0.06610   0.58350   0.58950   Biso      1.000     H          0.124241  
         H13       1.0000    0.28320   0.49090   0.64060   Biso      1.000     H          0.112097  
         H14       1.0000    0.25830   0.09830   0.83640   Biso      1.000     H          0.129501  
         H15       1.0000    0.47360   0.80850   0.71450   Biso      1.000     H          0.11976400000000001           
         H16       1.0000    0.33010   0.55360   0.77460   Biso      1.000     H          0.11062899999999999           
         H17       1.0000    0.58510   0.28950   0.71930   Biso      1.000     H          0.11843699999999999           
         H18       1.0000    0.75030   0.29510   0.76480   Biso      1.000     H          0.117041  
         H19       1.0000    0.59100   0.43610   0.65230   Biso      1.000     H          0.12303399999999999           
         H20       1.0000    0.75610   0.53590   0.65720   Biso      1.000     H          0.118828  
         H21       1.0000    0.01010   0.54610   0.72900   Biso      1.000     H          0.111345  
         H22       1.0000    0.86650   0.38180   0.60200   Biso      1.000     H          0.12504500000000002           
         H23       1.0000    0.10600   0.27200   0.55030   Biso      1.000     H          0.12804000000000001           
         H24       1.0000    0.05690   0.25530   0.73520   Biso      1.000     H          0.11077200000000001           
         H25       1.0000    0.28540   0.13920   0.68340   Biso      1.000     H          0.12051300000000001           
         H26       1.0000    0.25830   0.90170   0.66360   Biso      1.000     H          0.129502  
         H27       1.0000    0.06610   0.41650   0.91050   Biso      1.000     H          0.124241  
         H28       1.0000    0.05690   0.74470   0.76480   Biso      1.000     H          0.11077000000000001           
         H29       1.0000    0.94310   0.74470   0.26480   Biso      1.000     H          0.11077100000000001           
         H30       1.0000    0.71460   0.86080   0.31660   Biso      1.000     H          0.12051300000000001           
         H31       1.0000    0.93390   0.58350   0.08950   Biso      1.000     H          0.124241  
         H32       1.0000    0.74170   0.90170   0.16360   Biso      1.000     H          0.129502  
         H33       1.0000    0.71680   0.49090   0.14060   Biso      1.000     H          0.112097  
         H34       1.0000    0.52640   0.80850   0.21450   Biso      1.000     H          0.11976400000000001           
         H35       1.0000    0.66990   0.55360   0.27460   Biso      1.000     H          0.11062899999999999           
         H36       1.0000    0.41490   0.28950   0.21930   Biso      1.000     H          0.11843800000000002           
         H37       1.0000    0.24970   0.29510   0.26480   Biso      1.000     H          0.11704   
         H38       1.0000    0.40900   0.43610   0.15230   Biso      1.000     H          0.12303499999999999           
         H39       1.0000    0.24390   0.53590   0.15720   Biso      1.000     H          0.118828  
         H40       1.0000    0.98990   0.54610   0.22900   Biso      1.000     H          0.111345  
         H41       1.0000    0.89400   0.27200   0.05030   Biso      1.000     H          0.12804100000000002           
         H42       1.0000    0.94310   0.25530   0.23520   Biso      1.000     H          0.11077100000000001           
         H43       1.0000    0.13350   0.38180   0.10200   Biso      1.000     H          0.12504500000000002           
         H44       1.0000    0.93390   0.41650   0.41050   Biso      1.000     H          0.124241  
         H45       1.0000    0.89400   0.72800   0.44970   Biso      1.000     H          0.12804000000000001           
         H46       1.0000    0.13350   0.61820   0.39800   Biso      1.000     H          0.12504500000000002           
         H47       1.0000    0.98990   0.45390   0.27100   Biso      1.000     H          0.111345  
         H48       1.0000    0.24390   0.46410   0.34280   Biso      1.000     H          0.118828  
         H49       1.0000    0.71460   0.13920   0.18340   Biso      1.000     H          0.12051300000000001           
         H50       1.0000    0.24970   0.70490   0.23520   Biso      1.000     H          0.11704   
         H51       1.0000    0.40900   0.56390   0.34770   Biso      1.000     H          0.12303399999999999           
         H52       1.0000    0.66990   0.44640   0.22540   Biso      1.000     H          0.11062899999999999           
         H53       1.0000    0.52640   0.19150   0.28550   Biso      1.000     H          0.11976400000000001           
         H54       1.0000    0.71680   0.50910   0.35940   Biso      1.000     H          0.112098  
         H55       1.0000    0.74170   0.09830   0.33640   Biso      1.000     H          0.129502  
         H56       1.0000    0.41490   0.71050   0.28070   Biso      1.000     H          0.11843800000000002           
         O1        1.0000    0.96540   0.05970   0.90080   Biso      1.000     O          -0.602359           
         O2        1.0000    0.12300   0.19010   0.97280   Biso      1.000     O          -0.6430520000000001           
         O3        1.0000    0.69500   0.92430   0.48067   Biso      1.000     O          -0.672828           
         O4        1.0000    0.82530   0.25170   0.93440   Biso      1.000     O          -0.60658  
         O5        1.0000    0.54730   0.98500   0.40104   Biso      1.000     O          -0.614962           
         O6        1.0000    0.44120   0.80780   0.43290   Biso      1.000     O          -0.6226079999999999           
         O7        1.0000    0.03460   0.94030   0.09920   Biso      1.000     O          -0.602359           
         O8        1.0000    0.87700   0.19010   0.47280   Biso      1.000     O          -0.6430520000000001           
         O9        1.0000    0.17470   0.25170   0.43440   Biso      1.000     O          -0.606579           
         O10       1.0000    0.54730   0.01500   0.09896   Biso      1.000     O          -0.614962           
         O11       1.0000    0.69500   0.07570   0.01933   Biso      1.000     O          -0.672828           
         O12       1.0000    0.44120   0.19220   0.06710   Biso      1.000     O          -0.622609           
         O13       1.0000    0.55880   0.80780   0.93290   Biso      1.000     O          -0.622609           
         O14       1.0000    0.03460   0.05970   0.40080   Biso      1.000     O          -0.602358           
         O15       1.0000    0.30500   0.92430   0.98067   Biso      1.000     O          -0.672828           
         O16       1.0000    0.17470   0.74830   0.06560   Biso      1.000     O          -0.60658  
         O17       1.0000    0.82530   0.74830   0.56560   Biso      1.000     O          -0.60658  
         O18       1.0000    0.12300   0.80990   0.52720   Biso      1.000     O          -0.6430520000000001           
         O19       1.0000    0.96540   0.94030   0.59920   Biso      1.000     O          -0.602359           
         O20       1.0000    0.55880   0.19220   0.56710   Biso      1.000     O          -0.6226079999999999           
         O21       1.0000    0.30500   0.07570   0.51933   Biso      1.000     O          -0.672828           
         O22       1.0000    0.45270   0.01500   0.59896   Biso      1.000     O          -0.614962           
         O23       1.0000    0.87700   0.80990   0.02720   Biso      1.000     O          -0.6430520000000001           
         O24       1.0000    0.45270   0.98500   0.90104   Biso      1.000     O          -0.614963           
         S1        1.0000    0.00080   0.81822   0.07529   Biso      1.000     S          1.2164840000000001  
         S2        1.0000    0.60350   0.11293   0.07116   Biso      1.000     S          1.207047  
         S3        1.0000    0.00080   0.18178   0.42471   Biso      1.000     S          1.2164840000000001  
         S4        1.0000    0.60350   0.88707   0.42884   Biso      1.000     S          1.2070459999999998  
         S5        1.0000    0.99920   0.18178   0.92471   Biso      1.000     S          1.2164840000000001  
         S6        1.0000    0.39650   0.88707   0.92884   Biso      1.000     S          1.207047  
         S7        1.0000    0.39650   0.11293   0.57116   Biso      1.000     S          1.207047  
         S8        1.0000    0.99920   0.81822   0.57529   Biso      1.000     S          1.2164840000000001 