
##########################################################################
#               Crystallographic Information Format file
#               Produced by PyCifRW module
#
#  This is a CIF file.  CIF has been adopted by the International
#  Union of Crystallography as the standard for data archiving and
#  transmission.
#
#  For information on this file format, follow the CIF links at
#  http://www.iucr.org
##########################################################################

data_image0

_cell_length_a                          5.9565
_cell_length_b                          7.3716
_cell_length_c                          13.1769
_cell_angle_alpha                       102.925
_cell_angle_beta                        101.637
_cell_angle_gamma                       90.785
_symmetry_space_group_name_H-M          'P 1'
_symmetry_int_tables_number             1
loop_
  _symmetry_equiv_pos_as_xyz
         'x, y, z' 
loop_
  _atom_site_label
  _atom_site_occupancy
  _atom_site_fract_x
  _atom_site_fract_y
  _atom_site_fract_z
  _atom_site_thermal_displace_type
  _atom_site_B_iso_or_equiv
  _atom_site_type_symbol
  _atom_site_charge
         C1        1.0000    0.48480   0.99510   0.33580   Biso      1.000     C          0.617397  
         C2        1.0000    0.50890   0.62900   0.67140   Biso      1.000     C          0.621607  
         C3        1.0000    0.37090   0.45720   0.67330   Biso      1.000     C          0.048958  
         C4        1.0000    0.34180   0.30970   0.56770   Biso      1.000     C          0.06264   
         C5        1.0000    0.15070   0.16610   0.56570   Biso      1.000     C          0.633027  
         C6        1.0000    0.61590   0.82100   0.32990   Biso      1.000     C          0.047011000000000004          
         C7        1.0000    0.65160   0.74840   0.43310   Biso      1.000     C          0.063484  
         C8        1.0000    0.84240   0.61090   0.43170   Biso      1.000     C          0.642246  
         C9        1.0000    0.22000   0.91100   0.89940   Biso      1.000     C          0.579781  
         C10       1.0000    0.37900   0.97120   0.01080   Biso      1.000     C          0.0668    
         C11       1.0000    0.62880   0.96950   0.99640   Biso      1.000     C          0.06592200000000001           
         C12       1.0000    0.78800   0.05670   0.10270   Biso      1.000     C          0.574138  
         Er1       1.0000    0.97961   0.18080   0.32099   Biso      1.000     Er          2.00642   
         Er2       1.0000    0.02035   0.81943   0.67895   Biso      1.000     Er          2.0011919999999996  
         H1        1.0000    0.14410   0.50170   0.75290   Biso      1.000     H          0.422267  
         H2        1.0000    0.23400   0.48900   0.49210   Biso      1.000     H          0.38806   
         H3        1.0000    0.64720   0.04230   0.94270   Biso      1.000     H          0.08763   
         H4        1.0000    0.50610   0.68040   0.43430   Biso      1.000     H          0.10903499999999999           
         H5        1.0000    0.52830   0.72120   0.27000   Biso      1.000     H          0.12241600000000001           
         H6        1.0000    0.34850   0.10240   0.04280   Biso      1.000     H          0.081301  
         H7        1.0000    0.44940   0.40290   0.73320   Biso      1.000     H          0.125204  
         H8        1.0000    0.79640   0.78040   0.93430   Biso      1.000     H          0.369129  
         H9        1.0000    0.23010   0.89140   0.10410   Biso      1.000     H          0.378579  
         H10       1.0000    0.75970   0.99060   0.51280   Biso      1.000     H          0.388752  
         H11       1.0000    0.83360   0.79590   0.24390   Biso      1.000     H          0.422229  
         H12       1.0000    0.48830   0.24530   0.56650   Biso      1.000     H          0.110503  
         O1        1.0000    0.14950   0.51340   0.69070   Biso      1.000     O          -0.574466           
         O2        1.0000    0.83620   0.85660   0.30710   Biso      1.000     O          -0.570717           
         O3        1.0000    0.28360   0.38130   0.47460   Biso      1.000     O          -0.597264           
         O4        1.0000    0.17630   0.08310   0.64040   Biso      1.000     O          -0.6233069999999999           
         O5        1.0000    0.97540   0.14630   0.49160   Biso      1.000     O          -0.641433           
         O6        1.0000    0.28240   0.98900   0.34440   Biso      1.000     O          -0.616395           
         O7        1.0000    0.59270   0.14320   0.32940   Biso      1.000     O          -0.644753           
         O8        1.0000    0.71210   0.89370   0.52890   Biso      1.000     O          -0.6014689999999999           
         O9        1.0000    0.67560   0.78350   0.95960   Biso      1.000     O          -0.5200560000000001           
         O10       1.0000    0.82170   0.47330   0.35550   Biso      1.000     O          -0.6151979999999999           
         O11       1.0000    0.07940   0.78420   0.87650   Biso      1.000     O          -0.6129319999999999           
         O12       1.0000    0.25120   0.01190   0.83610   Biso      1.000     O          -0.6821149999999999           
         O13       1.0000    0.35210   0.86270   0.08170   Biso      1.000     O          -0.524518           
         O14       1.0000    0.95660   0.98020   0.14140   Biso      1.000     O          -0.644047           
         O15       1.0000    0.74330   0.21920   0.15160   Biso      1.000     O          -0.65232  
         O16       1.0000    0.40510   0.77710   0.67290   Biso      1.000     O          -0.615061           
         O17       1.0000    0.01660   0.65270   0.50750   Biso      1.000     O          -0.654026           
         O18       1.0000    0.71740   0.61540   0.66850   Biso      1.000     O          -0.645652 