
##########################################################################
#               Crystallographic Information Format file
#               Produced by PyCifRW module
#
#  This is a CIF file.  CIF has been adopted by the International
#  Union of Crystallography as the standard for data archiving and
#  transmission.
#
#  For information on this file format, follow the CIF links at
#  http://www.iucr.org
##########################################################################

data_image0

_cell_length_a                          9.0462
_cell_length_b                          9.0462
_cell_length_c                          16.986
_cell_angle_alpha                       90
_cell_angle_beta                        90
_cell_angle_gamma                       116.369
_symmetry_space_group_name_H-M          'P 1'
_symmetry_int_tables_number             1
loop_
  _symmetry_equiv_pos_as_xyz
         'x, y, z' 
loop_
  _atom_site_label
  _atom_site_occupancy
  _atom_site_fract_x
  _atom_site_fract_y
  _atom_site_fract_z
  _atom_site_thermal_displace_type
  _atom_site_B_iso_or_equiv
  _atom_site_type_symbol
  _atom_site_charge
         C1        1.0000    0.80070   0.65890   0.60420   Biso      1.000     C          0.645946  
         C2        1.0000    0.66860   0.06540   0.93950   Biso      1.000     C          -0.17460699999999998          
         C3        1.0000    0.81450   0.17290   0.88970   Biso      1.000     C          0.6454989999999999  
         C4        1.0000    0.15370   0.34110   0.11280   Biso      1.000     C          0.6296729999999999  
         C5        1.0000    0.29860   0.38580   0.05810   Biso      1.000     C          -0.185916           
         C6        1.0000    0.80070   0.65890   0.89580   Biso      1.000     C          0.645945  
         C7        1.0000    0.88610   0.59230   0.95020   Biso      1.000     C          -0.180817           
         C8        1.0000    0.06540   0.66860   0.06050   Biso      1.000     C          -0.17460499999999998          
         C9        1.0000    0.17290   0.81450   0.11030   Biso      1.000     C          0.6455    
         C10       1.0000    0.34110   0.15370   0.88720   Biso      1.000     C          0.6296729999999999  
         C11       1.0000    0.38580   0.29860   0.94190   Biso      1.000     C          -0.185916           
         C12       1.0000    0.88610   0.59230   0.54980   Biso      1.000     C          -0.180818           
         C13       1.0000    0.06540   0.66860   0.43950   Biso      1.000     C          -0.17460599999999998          
         C14       1.0000    0.17290   0.81450   0.38970   Biso      1.000     C          0.6454989999999999  
         C15       1.0000    0.34110   0.15370   0.61280   Biso      1.000     C          0.6296729999999999  
         C16       1.0000    0.38580   0.29860   0.55810   Biso      1.000     C          -0.185915           
         C17       1.0000    0.65890   0.80070   0.39580   Biso      1.000     C          0.645945  
         C18       1.0000    0.59230   0.88610   0.45020   Biso      1.000     C          -0.180818           
         C19       1.0000    0.66860   0.06540   0.56050   Biso      1.000     C          -0.17460499999999998          
         C20       1.0000    0.81450   0.17290   0.61030   Biso      1.000     C          0.645501  
         C21       1.0000    0.15370   0.34110   0.38720   Biso      1.000     C          0.6296729999999999  
         C22       1.0000    0.29860   0.38580   0.44190   Biso      1.000     C          -0.185915           
         C23       1.0000    0.59230   0.88610   0.04980   Biso      1.000     C          -0.180818           
         C24       1.0000    0.65890   0.80070   0.10420   Biso      1.000     C          0.645947  
         Eu1       1.0000    0.99999   0.99999   0.00000   Biso      1.000     Eu          1.1779700000000002  
         Eu2       1.0000    0.99999   0.99999   0.50000   Biso      1.000     Eu          1.1779700000000002  
         Eu3       1.0000    0.35564   0.65262   0.25000   Biso      1.000     Eu          1.394749  
         Eu4       1.0000    0.65262   0.35564   0.75000   Biso      1.000     Eu          1.3947479999999999  
         H1        1.0000    0.61730   0.13070   0.53890   Biso      1.000     H          0.11221199999999999           
         H2        1.0000    0.58760   0.97840   0.59260   Biso      1.000     H          0.134352  
         H3        1.0000    0.54610   0.94690   0.07980   Biso      1.000     H          0.129486  
         H4        1.0000    0.50570   0.80570   0.01730   Biso      1.000     H          0.115835  
         H5        1.0000    0.58760   0.97840   0.90740   Biso      1.000     H          0.134351  
         H6        1.0000    0.39450   0.39750   0.08800   Biso      1.000     H          0.130774  
         H7        1.0000    0.32410   0.49050   0.03280   Biso      1.000     H          0.11280599999999999           
         H8        1.0000    0.94690   0.54610   0.92020   Biso      1.000     H          0.129485  
         H9        1.0000    0.80570   0.50570   0.98270   Biso      1.000     H          0.115835  
         H10       1.0000    0.97840   0.58760   0.09260   Biso      1.000     H          0.134351  
         H11       1.0000    0.61730   0.13070   0.96110   Biso      1.000     H          0.11221199999999999           
         H12       1.0000    0.39750   0.39450   0.91200   Biso      1.000     H          0.130775  
         H13       1.0000    0.39450   0.39750   0.41200   Biso      1.000     H          0.130774  
         H14       1.0000    0.13070   0.61730   0.03890   Biso      1.000     H          0.11221099999999999           
         H15       1.0000    0.32410   0.49050   0.46720   Biso      1.000     H          0.11280599999999999           
         H16       1.0000    0.50570   0.80570   0.48270   Biso      1.000     H          0.115836  
         H17       1.0000    0.54610   0.94690   0.42020   Biso      1.000     H          0.129486  
         H18       1.0000    0.39750   0.39450   0.58800   Biso      1.000     H          0.130774  
         H19       1.0000    0.49050   0.32410   0.53280   Biso      1.000     H          0.11280599999999999           
         H20       1.0000    0.97840   0.58760   0.40740   Biso      1.000     H          0.134352  
         H21       1.0000    0.80570   0.50570   0.51730   Biso      1.000     H          0.115836  
         H22       1.0000    0.94690   0.54610   0.57980   Biso      1.000     H          0.129486  
         H23       1.0000    0.49050   0.32410   0.96720   Biso      1.000     H          0.11280699999999999           
         H24       1.0000    0.13070   0.61730   0.46110   Biso      1.000     H          0.11221199999999999           
         O1        1.0000    0.24850   0.78690   0.33590   Biso      1.000     O          -0.545912           
         O2        1.0000    0.43670   0.16590   0.66610   Biso      1.000     O          -0.535121           
         O3        1.0000    0.99550   0.72250   0.50170   Biso      1.000     O          -0.190183           
         O4        1.0000    0.17510   0.95190   0.40480   Biso      1.000     O          -0.48756400000000005          
         O5        1.0000    0.20410   0.02710   0.59920   Biso      1.000     O          -0.465188           
         O6        1.0000    0.80670   0.83090   0.40100   Biso      1.000     O          -0.472959           
         O7        1.0000    0.02710   0.20410   0.40080   Biso      1.000     O          -0.46518999999999994          
         O8        1.0000    0.72250   0.99550   0.49830   Biso      1.000     O          -0.190183           
         O9        1.0000    0.78690   0.24850   0.66410   Biso      1.000     O          -0.545914           
         O10       1.0000    0.95190   0.17510   0.59520   Biso      1.000     O          -0.487568           
         O11       1.0000    0.70380   0.55840   0.65440   Biso      1.000     O          -0.617363           
         O12       1.0000    0.16590   0.43670   0.33390   Biso      1.000     O          -0.535122           
         O13       1.0000    0.55840   0.70380   0.34560   Biso      1.000     O          -0.617362           
         O14       1.0000    0.83090   0.80670   0.59900   Biso      1.000     O          -0.47296099999999996          
         O15       1.0000    0.55840   0.70380   0.15440   Biso      1.000     O          -0.6173649999999999           
         O16       1.0000    0.20410   0.02710   0.90080   Biso      1.000     O          -0.465189           
         O17       1.0000    0.17510   0.95190   0.09520   Biso      1.000     O          -0.487566           
         O18       1.0000    0.24850   0.78690   0.16410   Biso      1.000     O          -0.545912           
         O19       1.0000    0.99550   0.72250   0.99830   Biso      1.000     O          -0.190182           
         O20       1.0000    0.70380   0.55840   0.84560   Biso      1.000     O          -0.617364           
         O21       1.0000    0.83090   0.80670   0.90100   Biso      1.000     O          -0.47296000000000005          
         O22       1.0000    0.16590   0.43670   0.16610   Biso      1.000     O          -0.535121           
         O23       1.0000    0.02710   0.20410   0.09920   Biso      1.000     O          -0.465189           
         O24       1.0000    0.95190   0.17510   0.90480   Biso      1.000     O          -0.48756499999999997          
         O25       1.0000    0.78690   0.24850   0.83590   Biso      1.000     O          -0.545909           
         O26       1.0000    0.72250   0.99550   0.00170   Biso      1.000     O          -0.190181           
         O27       1.0000    0.80670   0.83090   0.09900   Biso      1.000     O          -0.47296099999999996          
         O28       1.0000    0.26030   0.26030   0.00000   Biso      1.000     O          -0.17462  
         O29       1.0000    0.43670   0.16590   0.83390   Biso      1.000     O          -0.535119           
         O30       1.0000    0.26030   0.26030   0.50000   Biso      1.000     O          -0.174622 