
##########################################################################
#               Crystallographic Information Format file
#               Produced by PyCifRW module
#
#  This is a CIF file.  CIF has been adopted by the International
#  Union of Crystallography as the standard for data archiving and
#  transmission.
#
#  For information on this file format, follow the CIF links at
#  http://www.iucr.org
##########################################################################

data_image0

_cell_length_a                          6.8434
_cell_length_b                          19.014
_cell_length_c                          9.4203
_cell_angle_alpha                       90
_cell_angle_beta                        90
_cell_angle_gamma                       90
_symmetry_space_group_name_H-M          'P 1'
_symmetry_int_tables_number             1
loop_
  _symmetry_equiv_pos_as_xyz
         'x, y, z' 
loop_
  _atom_site_label
  _atom_site_occupancy
  _atom_site_fract_x
  _atom_site_fract_y
  _atom_site_fract_z
  _atom_site_thermal_displace_type
  _atom_site_B_iso_or_equiv
  _atom_site_type_symbol
  _atom_site_charge
         Ba1       1.0000    0.75000   0.75000   0.47182   Biso      1.000     Ba          1.602111  
         Ba2       1.0000    0.25000   0.25000   0.02818   Biso      1.000     Ba          1.602111  
         Ba3       1.0000    0.25000   0.25000   0.52818   Biso      1.000     Ba          1.602111  
         Ba4       1.0000    0.75000   0.75000   0.97182   Biso      1.000     Ba          1.602111  
         C1        1.0000    0.92560   0.93322   0.81470   Biso      1.000     C          -0.543637           
         C2        1.0000    0.88250   0.88439   0.69210   Biso      1.000     C          0.732825  
         C3        1.0000    0.12240   0.51063   0.69930   Biso      1.000     C          0.7011109999999999  
         C4        1.0000    0.07440   0.43322   0.68530   Biso      1.000     C          -0.543637           
         C5        1.0000    0.11750   0.38439   0.80790   Biso      1.000     C          0.732824  
         C6        1.0000    0.37760   0.98937   0.69930   Biso      1.000     C          0.7011109999999999  
         C7        1.0000    0.42560   0.06678   0.68530   Biso      1.000     C          -0.543637           
         C8        1.0000    0.38250   0.11561   0.80790   Biso      1.000     C          0.732825  
         C9        1.0000    0.37760   0.51063   0.19930   Biso      1.000     C          0.7011109999999999  
         C10       1.0000    0.38250   0.38439   0.30790   Biso      1.000     C          0.732825  
         C11       1.0000    0.87760   0.01063   0.80070   Biso      1.000     C          0.7011109999999999  
         C12       1.0000    0.07440   0.06678   0.18530   Biso      1.000     C          -0.543637           
         C13       1.0000    0.11750   0.11561   0.30790   Biso      1.000     C          0.732825  
         C14       1.0000    0.87760   0.48937   0.30070   Biso      1.000     C          0.7011109999999999  
         C15       1.0000    0.92560   0.56678   0.31470   Biso      1.000     C          -0.543637           
         C16       1.0000    0.88250   0.61561   0.19210   Biso      1.000     C          0.732824  
         C17       1.0000    0.62240   0.01063   0.30070   Biso      1.000     C          0.7011109999999999  
         C18       1.0000    0.57440   0.93322   0.31470   Biso      1.000     C          -0.543637           
         C19       1.0000    0.61750   0.88439   0.19210   Biso      1.000     C          0.732824  
         C20       1.0000    0.42560   0.43322   0.18530   Biso      1.000     C          -0.543637           
         C21       1.0000    0.61750   0.61561   0.69210   Biso      1.000     C          0.732825  
         C22       1.0000    0.12240   0.98937   0.19930   Biso      1.000     C          0.7011109999999999  
         C23       1.0000    0.62240   0.48937   0.80070   Biso      1.000     C          0.7011109999999999  
         C24       1.0000    0.57440   0.56678   0.81470   Biso      1.000     C          -0.543637           
         H1        1.0000    0.64400   0.58450   0.89700   Biso      1.000     H          0.150062  
         H2        1.0000    0.06400   0.92950   0.83570   Biso      1.000     H          0.193484  
         H3        1.0000    0.85600   0.91550   0.89700   Biso      1.000     H          0.150062  
         H4        1.0000    0.93600   0.42950   0.66430   Biso      1.000     H          0.193484  
         H5        1.0000    0.14400   0.41550   0.60300   Biso      1.000     H          0.150062  
         H6        1.0000    0.56400   0.07050   0.66430   Biso      1.000     H          0.193484  
         H7        1.0000    0.35600   0.08450   0.60300   Biso      1.000     H          0.150062  
         H8        1.0000    0.43600   0.57050   0.83570   Biso      1.000     H          0.193484  
         H9        1.0000    0.35600   0.41550   0.10300   Biso      1.000     H          0.150062  
         H10       1.0000    0.93600   0.07050   0.16430   Biso      1.000     H          0.193484  
         H11       1.0000    0.14400   0.08450   0.10300   Biso      1.000     H          0.150062  
         H12       1.0000    0.06400   0.57050   0.33570   Biso      1.000     H          0.193484  
         H13       1.0000    0.85600   0.58450   0.39700   Biso      1.000     H          0.150062  
         H14       1.0000    0.43600   0.92950   0.33570   Biso      1.000     H          0.193484  
         H15       1.0000    0.56400   0.42950   0.16430   Biso      1.000     H          0.193484  
         H16       1.0000    0.64400   0.91550   0.39700   Biso      1.000     H          0.150062  
         O1        1.0000    0.34540   0.17803   0.77740   Biso      1.000     O          -0.74231  
         O2        1.0000    0.29080   0.54011   0.09850   Biso      1.000     O          -0.590115           
         O3        1.0000    0.43420   0.54437   0.30920   Biso      1.000     O          -0.606511           
         O4        1.0000    0.38620   0.40616   0.43560   Biso      1.000     O          -0.604784           
         O5        1.0000    0.34540   0.32197   0.27740   Biso      1.000     O          -0.74231  
         O6        1.0000    0.20920   0.95989   0.09850   Biso      1.000     O          -0.590115           
         O7        1.0000    0.06580   0.95563   0.30920   Biso      1.000     O          -0.6065119999999999           
         O8        1.0000    0.79080   0.45989   0.40150   Biso      1.000     O          -0.590115           
         O9        1.0000    0.15460   0.17803   0.27740   Biso      1.000     O          -0.74231  
         O10       1.0000    0.93420   0.45563   0.19080   Biso      1.000     O          -0.6065119999999999           
         O11       1.0000    0.88620   0.59384   0.06440   Biso      1.000     O          -0.604784           
         O12       1.0000    0.84540   0.67803   0.22260   Biso      1.000     O          -0.74231  
         O13       1.0000    0.70920   0.04011   0.40150   Biso      1.000     O          -0.590115           
         O14       1.0000    0.38620   0.09384   0.93560   Biso      1.000     O          -0.604784           
         O15       1.0000    0.56580   0.04437   0.19080   Biso      1.000     O          -0.6065119999999999           
         O16       1.0000    0.11380   0.09384   0.43560   Biso      1.000     O          -0.604784           
         O17       1.0000    0.43420   0.95563   0.80920   Biso      1.000     O          -0.6065119999999999           
         O18       1.0000    0.79080   0.04011   0.90150   Biso      1.000     O          -0.590115           
         O19       1.0000    0.15460   0.32197   0.77740   Biso      1.000     O          -0.74231  
         O20       1.0000    0.61380   0.90616   0.06440   Biso      1.000     O          -0.604784           
         O21       1.0000    0.70920   0.45989   0.90150   Biso      1.000     O          -0.590115           
         O22       1.0000    0.56580   0.45563   0.69080   Biso      1.000     O          -0.606511           
         O23       1.0000    0.29080   0.95989   0.59850   Biso      1.000     O          -0.590115           
         O24       1.0000    0.65460   0.67803   0.72260   Biso      1.000     O          -0.74231  
         O25       1.0000    0.61380   0.59384   0.56440   Biso      1.000     O          -0.604784           
         O26       1.0000    0.88620   0.90616   0.56440   Biso      1.000     O          -0.604784           
         O27       1.0000    0.84540   0.82197   0.72260   Biso      1.000     O          -0.74231  
         O28       1.0000    0.20920   0.54011   0.59850   Biso      1.000     O          -0.590115           
         O29       1.0000    0.06580   0.54437   0.80920   Biso      1.000     O          -0.6065119999999999           
         O30       1.0000    0.11380   0.40616   0.93560   Biso      1.000     O          -0.604784           
         O31       1.0000    0.93420   0.04437   0.69080   Biso      1.000     O          -0.6065119999999999           
         O32       1.0000    0.65460   0.82197   0.22260   Biso      1.000     O          -0.74231  
         Zn1       1.0000    0.00000   0.50000   0.00000   Biso      1.000     Zn          1.017639  
         Zn2       1.0000    0.50000   0.00000   0.00000   Biso      1.000     Zn          1.0176379999999998  
         Zn3       1.0000    0.50000   0.50000   0.50000   Biso      1.000     Zn          1.0176379999999998  
         Zn4       1.0000    0.00000   0.00000   0.50000   Biso      1.000     Zn          1.017639 