
##########################################################################
#               Crystallographic Information Format file
#               Produced by PyCifRW module
#
#  This is a CIF file.  CIF has been adopted by the International
#  Union of Crystallography as the standard for data archiving and
#  transmission.
#
#  For information on this file format, follow the CIF links at
#  http://www.iucr.org
##########################################################################

data_image0

_cell_length_a                          14.7328
_cell_length_b                          14.7328
_cell_length_c                          14.7328
_cell_angle_alpha                       109.471
_cell_angle_beta                        109.471
_cell_angle_gamma                       109.471
_symmetry_space_group_name_H-M          'P 1'
_symmetry_int_tables_number             1
loop_
  _symmetry_equiv_pos_as_xyz
         'x, y, z' 
loop_
  _atom_site_label
  _atom_site_occupancy
  _atom_site_fract_x
  _atom_site_fract_y
  _atom_site_fract_z
  _atom_site_thermal_displace_type
  _atom_site_B_iso_or_equiv
  _atom_site_type_symbol
  _atom_site_charge
         C1        1.0000    0.61465   0.00000   0.36875   Biso      1.000     C          0.38069000000000003           
         C2        1.0000    0.50940   0.00000   0.31900   Biso      1.000     C          -0.443316           
         C3        1.0000    0.21120   0.26680   0.68180   Biso      1.000     C          -0.073225           
         C4        1.0000    0.49060   0.80960   0.49060   Biso      1.000     C          -0.44507399999999997          
         C5        1.0000    0.73320   0.41500   0.94440   Biso      1.000     C          -0.072662           
         C6        1.0000    0.58500   0.52940   0.31820   Biso      1.000     C          -0.075458           
         C7        1.0000    0.68100   0.19040   0.68100   Biso      1.000     C          -0.44671099999999997          
         C8        1.0000    0.31900   0.00000   0.50940   Biso      1.000     C          -0.44304799999999994          
         C9        1.0000    0.78880   0.47060   0.05560   Biso      1.000     C          -0.077224           
         C10       1.0000    0.05560   0.47060   0.78880   Biso      1.000     C          -0.075324           
         C11       1.0000    0.26680   0.21120   0.68180   Biso      1.000     C          -0.07577300000000001          
         C12       1.0000    0.31900   0.50940   0.00000   Biso      1.000     C          -0.447408           
         C13       1.0000    0.49060   0.49060   0.80960   Biso      1.000     C          -0.44574600000000003          
         C14       1.0000    0.31820   0.52940   0.58500   Biso      1.000     C          -0.077413           
         C15       1.0000    0.21120   0.68180   0.26680   Biso      1.000     C          -0.073974           
         C16       1.0000    0.00000   0.61465   0.36875   Biso      1.000     C          0.378195  
         C17       1.0000    0.68100   0.68100   0.19040   Biso      1.000     C          -0.44657399999999997          
         C18       1.0000    0.58500   0.31820   0.52940   Biso      1.000     C          -0.075137           
         C19       1.0000    0.50940   0.31900   0.00000   Biso      1.000     C          -0.445896           
         C20       1.0000    0.68180   0.26680   0.21120   Biso      1.000     C          -0.070875           
         C21       1.0000    0.78880   0.05560   0.47060   Biso      1.000     C          -0.07281699999999999          
         C22       1.0000    0.41500   0.94440   0.73320   Biso      1.000     C          -0.076526           
         C23       1.0000    0.41500   0.73320   0.94440   Biso      1.000     C          -0.072448           
         C24       1.0000    0.00000   0.50940   0.31900   Biso      1.000     C          -0.445615           
         C25       1.0000    0.36875   0.61465   0.00000   Biso      1.000     C          0.377217  
         C26       1.0000    0.94440   0.41500   0.73320   Biso      1.000     C          -0.07395800000000001          
         C27       1.0000    0.24590   0.63125   0.63125   Biso      1.000     C          0.384382  
         C28       1.0000    0.75410   0.38535   0.38535   Biso      1.000     C          0.377827  
         C29       1.0000    0.68180   0.21120   0.26680   Biso      1.000     C          -0.075375           
         C30       1.0000    0.00000   0.36875   0.61465   Biso      1.000     C          0.382058  
         C31       1.0000    0.38535   0.75410   0.38535   Biso      1.000     C          0.38509099999999996           
         C32       1.0000    0.31820   0.58500   0.52940   Biso      1.000     C          -0.072573           
         C33       1.0000    0.63125   0.24590   0.63125   Biso      1.000     C          0.374693  
         C34       1.0000    0.36875   0.00000   0.61465   Biso      1.000     C          0.382533  
         C35       1.0000    0.05560   0.78880   0.47060   Biso      1.000     C          -0.072137           
         C36       1.0000    0.19040   0.68100   0.68100   Biso      1.000     C          -0.44581099999999996          
         C37       1.0000    0.94440   0.73320   0.41500   Biso      1.000     C          -0.07472000000000001          
         C38       1.0000    0.73320   0.94440   0.41500   Biso      1.000     C          -0.076892           
         C39       1.0000    0.63125   0.63125   0.24590   Biso      1.000     C          0.382319  
         C40       1.0000    0.61465   0.36875   0.00000   Biso      1.000     C          0.384117  
         C41       1.0000    0.26680   0.68180   0.21120   Biso      1.000     C          -0.07561699999999999          
         C42       1.0000    0.47060   0.78880   0.05560   Biso      1.000     C          -0.07165  
         C43       1.0000    0.00000   0.31900   0.50940   Biso      1.000     C          -0.44667700000000005          
         C44       1.0000    0.52940   0.31820   0.58500   Biso      1.000     C          -0.073414           
         C45       1.0000    0.80960   0.49060   0.49060   Biso      1.000     C          -0.447683           
         C46       1.0000    0.52940   0.58500   0.31820   Biso      1.000     C          -0.073894           
         C47       1.0000    0.47060   0.05560   0.78880   Biso      1.000     C          -0.072401           
         C48       1.0000    0.38535   0.38535   0.75410   Biso      1.000     C          0.37877   
         H1        1.0000    0.55724   0.47162   0.80108   Biso      1.000     H          0.135241  
         H2        1.0000    0.51832   0.53901   0.90142   Biso      1.000     H          0.136927  
         H3        1.0000    0.89702   0.42689   0.77938   Biso      1.000     H          0.09515   
         H4        1.0000    0.92398   0.23226   0.45027   Biso      1.000     H          0.134062  
         H5        1.0000    0.52663   0.35302   0.08930   Biso      1.000     H          0.135902  
         H6        1.0000    0.62410   0.62675   0.09645   Biso      1.000     H          0.138228  
         H7        1.0000    0.69172   0.76774   0.21801   Biso      1.000     H          0.134258  
         H8        1.0000    0.76556   0.68689   0.21392   Biso      1.000     H          0.134917  
         H9        1.0000    0.23802   0.44585   0.91802   Biso      1.000     H          0.134169  
         H10       1.0000    0.37927   0.47621   0.01022   Biso      1.000     H          0.14006   
         H11       1.0000    0.30134   0.52496   0.07176   Biso      1.000     H          0.133193  
         H12       1.0000    0.26153   0.91065   0.43766   Biso      1.000     H          0.1359    
         H13       1.0000    0.26931   0.04467   0.51447   Biso      1.000     H          0.127066  
         H14       1.0000    0.38778   0.04467   0.49488   Biso      1.000     H          0.13855   
         H15       1.0000    0.62905   0.09666   0.62215   Biso      1.000     H          0.136634  
         H16       1.0000    0.76931   0.22120   0.69562   Biso      1.000     H          0.134475  
         H17       1.0000    0.68301   0.21053   0.76361   Biso      1.000     H          0.135205  
         H18       1.0000    0.53240   0.90334   0.52549   Biso      1.000     H          0.138873  
         H19       1.0000    0.47248   0.78947   0.55308   Biso      1.000     H          0.13435   
         H20       1.0000    0.54811   0.77880   0.47442   Biso      1.000     H          0.133511  
         H21       1.0000    0.43766   0.91065   0.26153   Biso      1.000     H          0.136246  
         H22       1.0000    0.49488   0.04467   0.38778   Biso      1.000     H          0.138099  
         H23       1.0000    0.51447   0.04467   0.26931   Biso      1.000     H          0.12770399999999998           
         H24       1.0000    0.93507   0.45764   0.22676   Biso      1.000     H          0.132491  
         H25       1.0000    0.08562   0.52838   0.32946   Biso      1.000     H          0.135151  
         H26       1.0000    0.97931   0.46099   0.36240   Biso      1.000     H          0.136732  
         H27       1.0000    0.10839   0.65921   0.61212   Biso      1.000     H          0.138981  
         H28       1.0000    0.17362   0.64698   0.73629   Biso      1.000     H          0.135954  
         H29       1.0000    0.24638   0.77518   0.73297   Biso      1.000     H          0.12784600000000002           
         H30       1.0000    0.79217   0.55415   0.47217   Biso      1.000     H          0.13442   
         H31       1.0000    0.90306   0.52379   0.53401   Biso      1.000     H          0.140274  
         H32       1.0000    0.99736   0.37325   0.46971   Biso      1.000     H          0.13830599999999998           
         H33       1.0000    0.07867   0.31311   0.52703   Biso      1.000     H          0.13475299999999998           
         H34       1.0000    0.47743   0.54236   0.76911   Biso      1.000     H          0.132741  
         H35       1.0000    0.77638   0.47504   0.54680   Biso      1.000     H          0.133403  
         H36       1.0000    0.44918   0.34079   0.95291   Biso      1.000     H          0.138914  
         H37       1.0000    0.11764   0.64751   0.22062   Biso      1.000     H          0.09641   
         H38       1.0000    0.88236   0.52987   0.10298   Biso      1.000     H          0.094019  
         H39       1.0000    0.42689   0.89702   0.77938   Biso      1.000     H          0.092689  
         H40       1.0000    0.42689   0.77938   0.89702   Biso      1.000     H          0.09435   
         H41       1.0000    0.52987   0.10298   0.88236   Biso      1.000     H          0.092472  
         H42       1.0000    0.57311   0.35249   0.47013   Biso      1.000     H          0.095899  
         H43       1.0000    0.88236   0.10298   0.52987   Biso      1.000     H          0.094684  
         H44       1.0000    0.47013   0.35249   0.57311   Biso      1.000     H          0.096859  
         H45       1.0000    0.89702   0.77938   0.42689   Biso      1.000     H          0.095186  
         H46       1.0000    0.64751   0.22062   0.11764   Biso      1.000     H          0.094704  
         H47       1.0000    0.22062   0.64751   0.11764   Biso      1.000     H          0.095436  
         H48       1.0000    0.11764   0.22062   0.64751   Biso      1.000     H          0.095541  
         H49       1.0000    0.10298   0.52987   0.88236   Biso      1.000     H          0.096138  
         H50       1.0000    0.35249   0.47013   0.57311   Biso      1.000     H          0.09409400000000001           
         H51       1.0000    0.77938   0.42689   0.89702   Biso      1.000     H          0.09526   
         H52       1.0000    0.64751   0.11764   0.22062   Biso      1.000     H          0.092565  
         H53       1.0000    0.35249   0.57311   0.47013   Biso      1.000     H          0.09501699999999999           
         H54       1.0000    0.77938   0.89702   0.42689   Biso      1.000     H          0.0949    
         H55       1.0000    0.52987   0.88236   0.10298   Biso      1.000     H          0.09446   
         H56       1.0000    0.47120   0.22482   0.95779   Biso      1.000     H          0.12770499999999999           
         H57       1.0000    0.57311   0.47013   0.35249   Biso      1.000     H          0.096211  
         H58       1.0000    0.10298   0.88236   0.52987   Biso      1.000     H          0.095743  
         H59       1.0000    0.22062   0.11764   0.64751   Biso      1.000     H          0.09386599999999999           
         H60       1.0000    0.47013   0.57311   0.35249   Biso      1.000     H          0.094921  
         N1        1.0000    0.37867   0.72757   0.28584   Biso      1.000     N          -0.35160399999999997          
         N2        1.0000    0.27243   0.65110   0.55827   Biso      1.000     N          -0.352697           
         N3        1.0000    0.09283   0.71416   0.44173   Biso      1.000     N          -0.35117800000000005          
         N4        1.0000    0.44173   0.09283   0.71416   Biso      1.000     N          -0.34972600000000004          
         N5        1.0000    0.72757   0.28584   0.37867   Biso      1.000     N          -0.349433           
         N6        1.0000    0.62133   0.90717   0.34890   Biso      1.000     N          -0.350286           
         N7        1.0000    0.34890   0.62133   0.90717   Biso      1.000     N          -0.350517           
         N8        1.0000    0.90717   0.34890   0.62133   Biso      1.000     N          -0.350244           
         N9        1.0000    0.55827   0.27243   0.65110   Biso      1.000     N          -0.352936           
         N10       1.0000    0.55827   0.65110   0.27243   Biso      1.000     N          -0.34929699999999997          
         N11       1.0000    0.65110   0.55827   0.27243   Biso      1.000     N          -0.353172           
         N12       1.0000    0.44173   0.71416   0.09283   Biso      1.000     N          -0.351132           
         N13       1.0000    0.37867   0.28584   0.72757   Biso      1.000     N          -0.34942199999999995          
         N14       1.0000    0.62133   0.34890   0.90717   Biso      1.000     N          -0.353613           
         N15       1.0000    0.09283   0.44173   0.71416   Biso      1.000     N          -0.353233           
         N16       1.0000    0.28584   0.37867   0.72757   Biso      1.000     N          -0.351313           
         N17       1.0000    0.72757   0.37867   0.28584   Biso      1.000     N          -0.350055           
         N18       1.0000    0.27243   0.55827   0.65110   Biso      1.000     N          -0.34841700000000003          
         N19       1.0000    0.71416   0.09283   0.44173   Biso      1.000     N          -0.352436           
         N20       1.0000    0.65110   0.27243   0.55827   Biso      1.000     N          -0.352605           
         N21       1.0000    0.28584   0.72757   0.37867   Biso      1.000     N          -0.35189699999999996          
         N22       1.0000    0.34890   0.90717   0.62133   Biso      1.000     N          -0.347375           
         N23       1.0000    0.71416   0.44173   0.09283   Biso      1.000     N          -0.348475           
         N24       1.0000    0.90717   0.62133   0.34890   Biso      1.000     N          -0.351785           
         Zn1       1.0000    0.75000   0.50000   0.25000   Biso      1.000     Zn          0.638881  
         Zn2       1.0000    0.75000   0.25000   0.50000   Biso      1.000     Zn          0.646343  
         Zn3       1.0000    0.25000   0.75000   0.50000   Biso      1.000     Zn          0.638918  
         Zn4       1.0000    0.50000   0.75000   0.25000   Biso      1.000     Zn          0.639618  
         Zn5       1.0000    0.50000   0.25000   0.75000   Biso      1.000     Zn          0.645551  
         Zn6       1.0000    0.25000   0.50000   0.75000   Biso      1.000     Zn          0.638878 