
##########################################################################
#               Crystallographic Information Format file
#               Produced by PyCifRW module
#
#  This is a CIF file.  CIF has been adopted by the International
#  Union of Crystallography as the standard for data archiving and
#  transmission.
#
#  For information on this file format, follow the CIF links at
#  http://www.iucr.org
##########################################################################

data_image0

_cell_length_a                          10.161
_cell_length_b                          13.019
_cell_length_c                          18.705
_cell_angle_alpha                       90
_cell_angle_beta                        90
_cell_angle_gamma                       98.67
_symmetry_space_group_name_H-M          'P 1'
_symmetry_int_tables_number             1
loop_
  _symmetry_equiv_pos_as_xyz
         'x, y, z' 
loop_
  _atom_site_label
  _atom_site_occupancy
  _atom_site_fract_x
  _atom_site_fract_y
  _atom_site_fract_z
  _atom_site_thermal_displace_type
  _atom_site_B_iso_or_equiv
  _atom_site_type_symbol
  _atom_site_charge
         C1        1.0000    0.46800   0.42600   0.14800   Biso      1.000     C          0.571796  
         C2        1.0000    0.35910   0.55530   0.08160   Biso      1.000     C          -0.284956           
         C3        1.0000    0.09890   0.53330   0.21000   Biso      1.000     C          -0.273865           
         C4        1.0000    0.11020   0.53740   0.07580   Biso      1.000     C          -0.278921           
         C5        1.0000    0.23830   0.68160   0.14730   Biso      1.000     C          -0.287917           
         C6        1.0000    0.34800   0.55160   0.21560   Biso      1.000     C          -0.298751           
         C7        1.0000    0.21810   0.40770   0.14500   Biso      1.000     C          -0.293885           
         C8        1.0000    0.23920   0.61430   0.07950   Biso      1.000     C          0.07789   
         C9        1.0000    0.22840   0.61130   0.21340   Biso      1.000     C          0.069155  
         C10       1.0000    0.34730   0.48390   0.14800   Biso      1.000     C          0.079887  
         C11       1.0000    0.09800   0.46540   0.14260   Biso      1.000     C          0.067383  
         C12       1.0000    0.24080   0.68390   0.01360   Biso      1.000     C          0.6207    
         C13       1.0000    0.46720   0.89270   0.36360   Biso      1.000     C          0.624418  
         C14       1.0000    0.22330   0.67440   0.28200   Biso      1.000     C          0.639928  
         C15       1.0000    0.14090   0.94470   0.58160   Biso      1.000     C          -0.284956           
         C16       1.0000    0.40110   0.96670   0.71000   Biso      1.000     C          -0.273865           
         C17       1.0000    0.38980   0.96260   0.57580   Biso      1.000     C          -0.278921           
         C18       1.0000    0.26170   0.81840   0.64730   Biso      1.000     C          -0.287917           
         C19       1.0000    0.15200   0.94840   0.71560   Biso      1.000     C          -0.298751           
         C20       1.0000    0.28190   0.09230   0.64500   Biso      1.000     C          -0.293885           
         C21       1.0000    0.26080   0.88570   0.57950   Biso      1.000     C          0.07789   
         C22       1.0000    0.27160   0.88870   0.71340   Biso      1.000     C          0.069155  
         C23       1.0000    0.40200   0.03460   0.64260   Biso      1.000     C          0.067383  
         C24       1.0000    0.25920   0.81610   0.51360   Biso      1.000     C          0.6207    
         C25       1.0000    0.27670   0.82560   0.78200   Biso      1.000     C          0.639928  
         C26       1.0000    0.96720   0.39270   0.13640   Biso      1.000     C          0.624418  
         C27       1.0000    0.03200   0.07400   0.64800   Biso      1.000     C          0.571796  
         C28       1.0000    0.96800   0.92600   0.35200   Biso      1.000     C          0.571796  
         C29       1.0000    0.74080   0.18390   0.48640   Biso      1.000     C          0.6207    
         C30       1.0000    0.64090   0.44470   0.91840   Biso      1.000     C          -0.284956           
         C31       1.0000    0.90110   0.46670   0.79000   Biso      1.000     C          -0.273865           
         C32       1.0000    0.88980   0.46260   0.92420   Biso      1.000     C          -0.278921           
         C33       1.0000    0.76170   0.31840   0.85270   Biso      1.000     C          -0.287917           
         C34       1.0000    0.65200   0.44840   0.78440   Biso      1.000     C          -0.298751           
         C35       1.0000    0.78190   0.59230   0.85500   Biso      1.000     C          -0.293885           
         C36       1.0000    0.76080   0.38570   0.92050   Biso      1.000     C          0.07789   
         C37       1.0000    0.77160   0.38870   0.78660   Biso      1.000     C          0.069155  
         C38       1.0000    0.65270   0.51610   0.85200   Biso      1.000     C          0.079887  
         C39       1.0000    0.90200   0.53460   0.85740   Biso      1.000     C          0.067383  
         C40       1.0000    0.75920   0.31610   0.98640   Biso      1.000     C          0.6207    
         C41       1.0000    0.72330   0.17440   0.21800   Biso      1.000     C          0.639928  
         C42       1.0000    0.77670   0.32560   0.71800   Biso      1.000     C          0.639928  
         C43       1.0000    0.03280   0.60730   0.86360   Biso      1.000     C          0.624418  
         C44       1.0000    0.85910   0.05530   0.41840   Biso      1.000     C          -0.284956           
         C45       1.0000    0.59890   0.03330   0.29000   Biso      1.000     C          -0.273865           
         C46       1.0000    0.61020   0.03740   0.42420   Biso      1.000     C          -0.278921           
         C47       1.0000    0.73830   0.18160   0.35270   Biso      1.000     C          -0.287917           
         C48       1.0000    0.84800   0.05160   0.28440   Biso      1.000     C          -0.298751           
         C49       1.0000    0.71810   0.90770   0.35500   Biso      1.000     C          -0.293885           
         C50       1.0000    0.73920   0.11430   0.42050   Biso      1.000     C          0.07789   
         C51       1.0000    0.72840   0.11130   0.28660   Biso      1.000     C          0.069155  
         C52       1.0000    0.84730   0.98390   0.35200   Biso      1.000     C          0.079887  
         C53       1.0000    0.59800   0.96540   0.35740   Biso      1.000     C          0.067383  
         C54       1.0000    0.53200   0.57400   0.85200   Biso      1.000     C          0.571796  
         C55       1.0000    0.53280   0.10730   0.63640   Biso      1.000     C          0.624418  
         C56       1.0000    0.15270   0.01610   0.64800   Biso      1.000     C          0.079887  
         H1        1.0000    0.55720   0.39480   0.91600   Biso      1.000     H          0.126881  
         H2        1.0000    0.09140   0.48860   0.25300   Biso      1.000     H          0.123455  
         H3        1.0000    0.02150   0.57120   0.20900   Biso      1.000     H          0.128927  
         H4        1.0000    0.03320   0.57580   0.07390   Biso      1.000     H          0.121581  
         H5        1.0000    0.10950   0.49490   0.03190   Biso      1.000     H          0.121473  
         H6        1.0000    0.16150   0.72020   0.14580   Biso      1.000     H          0.127522  
         H7        1.0000    0.32080   0.73270   0.14950   Biso      1.000     H          0.12422   
         H8        1.0000    0.63890   0.48690   0.96230   Biso      1.000     H          0.130594  
         H9        1.0000    0.34270   0.50710   0.25870   Biso      1.000     H          0.12232   
         H10       1.0000    0.21810   0.36340   0.10200   Biso      1.000     H          0.1205    
         H11       1.0000    0.21170   0.36210   0.18760   Biso      1.000     H          0.123142  
         H12       1.0000    0.44280   0.60520   0.08400   Biso      1.000     H          0.126881  
         H13       1.0000    0.13890   0.98690   0.53770   Biso      1.000     H          0.130594  
         H14       1.0000    0.40860   0.01140   0.75300   Biso      1.000     H          0.123455  
         H15       1.0000    0.47850   0.92880   0.70900   Biso      1.000     H          0.128927  
         H16       1.0000    0.46680   0.92420   0.57390   Biso      1.000     H          0.121581  
         H17       1.0000    0.39050   0.00510   0.53190   Biso      1.000     H          0.121473  
         H18       1.0000    0.33850   0.77980   0.64580   Biso      1.000     H          0.127522  
         H19       1.0000    0.17920   0.76730   0.64950   Biso      1.000     H          0.12422   
         H20       1.0000    0.06810   0.89870   0.71790   Biso      1.000     H          0.121801  
         H21       1.0000    0.15730   0.99290   0.75870   Biso      1.000     H          0.12232   
         H22       1.0000    0.28190   0.13660   0.60200   Biso      1.000     H          0.1205    
         H23       1.0000    0.28830   0.13790   0.68760   Biso      1.000     H          0.123142  
         H24       1.0000    0.05720   0.89480   0.58400   Biso      1.000     H          0.126881  
         H25       1.0000    0.36110   0.51310   0.03770   Biso      1.000     H          0.130594  
         H26       1.0000    0.43190   0.60130   0.21790   Biso      1.000     H          0.121801  
         H27       1.0000    0.71810   0.86340   0.39800   Biso      1.000     H          0.1205    
         H28       1.0000    0.90860   0.51140   0.74700   Biso      1.000     H          0.123455  
         H29       1.0000    0.97850   0.42880   0.79100   Biso      1.000     H          0.128927  
         H30       1.0000    0.71170   0.86210   0.31240   Biso      1.000     H          0.123142  
         H31       1.0000    0.89050   0.50510   0.96810   Biso      1.000     H          0.121473  
         H32       1.0000    0.83850   0.27980   0.85420   Biso      1.000     H          0.127522  
         H33       1.0000    0.67920   0.26730   0.85050   Biso      1.000     H          0.12422   
         H34       1.0000    0.56810   0.39870   0.78210   Biso      1.000     H          0.121801  
         H35       1.0000    0.65730   0.49290   0.74130   Biso      1.000     H          0.12232   
         H36       1.0000    0.78190   0.63660   0.89800   Biso      1.000     H          0.1205    
         H37       1.0000    0.78830   0.63790   0.81240   Biso      1.000     H          0.123142  
         H38       1.0000    0.96680   0.42420   0.92610   Biso      1.000     H          0.121581  
         H39       1.0000    0.94280   0.10520   0.41600   Biso      1.000     H          0.126881  
         H40       1.0000    0.86110   0.01310   0.46230   Biso      1.000     H          0.130594  
         H41       1.0000    0.84270   0.00710   0.24130   Biso      1.000     H          0.12232   
         H42       1.0000    0.93190   0.10130   0.28210   Biso      1.000     H          0.121801  
         H43       1.0000    0.66150   0.22020   0.35420   Biso      1.000     H          0.127522  
         H44       1.0000    0.82080   0.23270   0.35050   Biso      1.000     H          0.12422   
         H45       1.0000    0.53320   0.07580   0.42610   Biso      1.000     H          0.121581  
         H46       1.0000    0.52150   0.07120   0.29100   Biso      1.000     H          0.128927  
         H47       1.0000    0.59140   0.98860   0.24700   Biso      1.000     H          0.123455  
         H48       1.0000    0.60950   0.99490   0.46810   Biso      1.000     H          0.121473  
         O1        1.0000    0.32480   0.67900   0.96500   Biso      1.000     O          -0.560724           
         O2        1.0000    0.74310   0.12930   0.16000   Biso      1.000     O          -0.613123           
         O3        1.0000    0.58100   0.47620   0.15750   Biso      1.000     O          -0.556587           
         O4        1.0000    0.15160   0.74150   0.01020   Biso      1.000     O          -0.549872           
         O5        1.0000    0.36290   0.93470   0.36110   Biso      1.000     O          -0.540566           
         O6        1.0000    0.46830   0.79720   0.37150   Biso      1.000     O          -0.607047           
         O7        1.0000    0.69220   0.26350   0.22140   Biso      1.000     O          -0.501445           
         O8        1.0000    0.95330   0.82980   0.36330   Biso      1.000     O          -0.564945           
         O9        1.0000    0.80780   0.23650   0.72140   Biso      1.000     O          -0.501445           
         O10       1.0000    0.41900   0.52380   0.84250   Biso      1.000     O          -0.556587           
         O11       1.0000    0.54670   0.67020   0.86330   Biso      1.000     O          -0.564945           
         O12       1.0000    0.75690   0.37070   0.66000   Biso      1.000     O          -0.613124           
         O13       1.0000    0.03170   0.70280   0.87150   Biso      1.000     O          -0.607047           
         O14       1.0000    0.13710   0.56530   0.86110   Biso      1.000     O          -0.540567           
         O15       1.0000    0.65160   0.24150   0.48980   Biso      1.000     O          -0.549872           
         O16       1.0000    0.45330   0.32980   0.13670   Biso      1.000     O          -0.564945           
         O17       1.0000    0.82480   0.17900   0.53500   Biso      1.000     O          -0.560724           
         O18       1.0000    0.08100   0.97620   0.34250   Biso      1.000     O          -0.556587           
         O19       1.0000    0.24310   0.62930   0.34000   Biso      1.000     O          -0.613124           
         O20       1.0000    0.84840   0.25850   0.98980   Biso      1.000     O          -0.549872           
         O21       1.0000    0.96830   0.29720   0.12850   Biso      1.000     O          -0.607047           
         O22       1.0000    0.67520   0.32100   0.03500   Biso      1.000     O          -0.560724           
         O23       1.0000    0.19220   0.76350   0.27860   Biso      1.000     O          -0.501445           
         O24       1.0000    0.53170   0.20280   0.62850   Biso      1.000     O          -0.607047           
         O25       1.0000    0.30780   0.73650   0.77860   Biso      1.000     O          -0.501445           
         O26       1.0000    0.25690   0.87070   0.84000   Biso      1.000     O          -0.613124           
         O27       1.0000    0.63710   0.06530   0.63890   Biso      1.000     O          -0.540567           
         O28       1.0000    0.91900   0.02380   0.65750   Biso      1.000     O          -0.556587           
         O29       1.0000    0.17520   0.82100   0.46500   Biso      1.000     O          -0.560724           
         O30       1.0000    0.34840   0.75850   0.51020   Biso      1.000     O          -0.549872           
         O31       1.0000    0.86290   0.43470   0.13890   Biso      1.000     O          -0.540567           
         O32       1.0000    0.04670   0.17020   0.63670   Biso      1.000     O          -0.564945           
         Zn1       1.0000    0.14719   0.82664   0.92415   Biso      1.000     Zn          1.04278   
         Zn2       1.0000    0.31972   0.64510   0.86118   Biso      1.000     Zn          0.926252  
         Zn3       1.0000    0.35281   0.67336   0.42415   Biso      1.000     Zn          1.04278   
         Zn4       1.0000    0.18028   0.85490   0.36118   Biso      1.000     Zn          0.926252  
         Zn5       1.0000    0.85281   0.17336   0.07585   Biso      1.000     Zn          1.04278   
         Zn6       1.0000    0.68028   0.35490   0.13882   Biso      1.000     Zn          0.926253  
         Zn7       1.0000    0.64719   0.32664   0.57585   Biso      1.000     Zn          1.04278   
         Zn8       1.0000    0.81972   0.14510   0.63882   Biso      1.000     Zn          0.926252 