
##########################################################################
#               Crystallographic Information Format file
#               Produced by PyCifRW module
#
#  This is a CIF file.  CIF has been adopted by the International
#  Union of Crystallography as the standard for data archiving and
#  transmission.
#
#  For information on this file format, follow the CIF links at
#  http://www.iucr.org
##########################################################################

data_image0

_cell_length_a                          7.2214
_cell_length_b                          10.295
_cell_length_c                          11.041
_cell_angle_alpha                       90
_cell_angle_beta                        90
_cell_angle_gamma                       90
_symmetry_space_group_name_H-M          'P 1'
_symmetry_int_tables_number             1
loop_
  _symmetry_equiv_pos_as_xyz
         'x, y, z' 
loop_
  _atom_site_label
  _atom_site_occupancy
  _atom_site_fract_x
  _atom_site_fract_y
  _atom_site_fract_z
  _atom_site_thermal_displace_type
  _atom_site_B_iso_or_equiv
  _atom_site_type_symbol
  _atom_site_charge
         C1        1.0000    0.32700   0.53240   0.34590   Biso      1.000     C          0.65259   
         C2        1.0000    0.70800   0.91820   0.75620   Biso      1.000     C          -0.341163           
         C3        1.0000    0.54950   0.83220   0.71200   Biso      1.000     C          -0.254791           
         C4        1.0000    0.42110   0.78340   0.81010   Biso      1.000     C          0.076833  
         C5        1.0000    0.52800   0.71630   0.91010   Biso      1.000     C          0.583492  
         C6        1.0000    0.07890   0.21660   0.31010   Biso      1.000     C          0.076847  
         C7        1.0000    0.95050   0.16780   0.21200   Biso      1.000     C          -0.254765           
         C8        1.0000    0.79200   0.08180   0.25620   Biso      1.000     C          -0.341186           
         C9        1.0000    0.67300   0.03240   0.15410   Biso      1.000     C          0.652612  
         C10       1.0000    0.20800   0.58180   0.24380   Biso      1.000     C          -0.341128           
         C11       1.0000    0.97200   0.28370   0.41010   Biso      1.000     C          0.583488  
         C12       1.0000    0.47200   0.21630   0.58990   Biso      1.000     C          0.583502  
         C13       1.0000    0.57890   0.28340   0.68990   Biso      1.000     C          0.076855  
         C14       1.0000    0.45050   0.33220   0.78800   Biso      1.000     C          -0.254769           
         C15       1.0000    0.29200   0.41820   0.74380   Biso      1.000     C          -0.341165           
         C16       1.0000    0.17300   0.46760   0.84590   Biso      1.000     C          0.652597  
         C17       1.0000    0.02800   0.78370   0.08990   Biso      1.000     C          0.583497  
         C18       1.0000    0.92110   0.71660   0.18990   Biso      1.000     C          0.076837  
         C19       1.0000    0.04950   0.66780   0.28800   Biso      1.000     C          -0.254789           
         C20       1.0000    0.82700   0.96760   0.65410   Biso      1.000     C          0.652611  
         Cu1       1.0000    0.89940   0.56697   0.97073   Biso      1.000     Cu          0.801622  
         Cu2       1.0000    0.60060   0.43303   0.47073   Biso      1.000     Cu          0.80155   
         Cu3       1.0000    0.39940   0.93303   0.02927   Biso      1.000     Cu          0.801654  
         Cu4       1.0000    0.10060   0.06697   0.52927   Biso      1.000     Cu          0.801585  
         H1        1.0000    0.83390   0.02230   0.31080   Biso      1.000     H          0.139254  
         H2        1.0000    0.22930   0.34700   0.68670   Biso      1.000     H          0.13107   
         H3        1.0000    0.83020   0.78480   0.22920   Biso      1.000     H          0.1025    
         H4        1.0000    0.82010   0.53550   0.18700   Biso      1.000     H          0.324269  
         H5        1.0000    0.68320   0.63590   0.13260   Biso      1.000     H          0.328586  
         H6        1.0000    0.00590   0.61630   0.35730   Biso      1.000     H          0.124445  
         H7        1.0000    0.11150   0.73460   0.32650   Biso      1.000     H          0.124618  
         H8        1.0000    0.16610   0.52230   0.18920   Biso      1.000     H          0.139253  
         H9        1.0000    0.27070   0.65300   0.18670   Biso      1.000     H          0.131057  
         H10       1.0000    0.77070   0.84700   0.81330   Biso      1.000     H          0.131069  
         H11       1.0000    0.66610   0.97770   0.81080   Biso      1.000     H          0.139264  
         H12       1.0000    0.61150   0.76540   0.67350   Biso      1.000     H          0.124624  
         H13       1.0000    0.50590   0.88370   0.64270   Biso      1.000     H          0.124443  
         H14       1.0000    0.18320   0.86410   0.86740   Biso      1.000     H          0.328586  
         H15       1.0000    0.32010   0.96450   0.81300   Biso      1.000     H          0.324273  
         H16       1.0000    0.33020   0.71520   0.77080   Biso      1.000     H          0.102504  
         H17       1.0000    0.33390   0.47770   0.68920   Biso      1.000     H          0.139253  
         H18       1.0000    0.72930   0.15300   0.31330   Biso      1.000     H          0.131066  
         H19       1.0000    0.38850   0.26540   0.82650   Biso      1.000     H          0.124596  
         H20       1.0000    0.81680   0.36410   0.63260   Biso      1.000     H          0.328598  
         H21       1.0000    0.67990   0.46450   0.68700   Biso      1.000     H          0.324286  
         H22       1.0000    0.66980   0.21520   0.72920   Biso      1.000     H          0.10249   
         H23       1.0000    0.16980   0.28480   0.27080   Biso      1.000     H          0.102491  
         H24       1.0000    0.17990   0.03550   0.31300   Biso      1.000     H          0.324284  
         H25       1.0000    0.88850   0.23460   0.17350   Biso      1.000     H          0.124589  
         H26       1.0000    0.99410   0.11630   0.14270   Biso      1.000     H          0.124415  
         H27       1.0000    0.49410   0.38370   0.85730   Biso      1.000     H          0.124429  
         H28       1.0000    0.31680   0.13590   0.36740   Biso      1.000     H          0.328593  
         N1        1.0000    0.69140   0.39090   0.63710   Biso      1.000     N          -0.633732           
         N2        1.0000    0.80860   0.60910   0.13710   Biso      1.000     N          -0.633703           
         N3        1.0000    0.30860   0.89090   0.86290   Biso      1.000     N          -0.6337   
         N4        1.0000    0.19140   0.10910   0.36290   Biso      1.000     N          -0.633717           
         O1        1.0000    0.02490   0.52910   0.81560   Biso      1.000     O          -0.546659           
         O2        1.0000    0.01860   0.73730   0.98310   Biso      1.000     O          -0.518736           
         O3        1.0000    0.37540   0.12030   0.61860   Biso      1.000     O          -0.543252           
         O4        1.0000    0.48140   0.26270   0.48310   Biso      1.000     O          -0.518713           
         O5        1.0000    0.12460   0.87970   0.11860   Biso      1.000     O          -0.543262           
         O6        1.0000    0.21490   0.44990   0.95300   Biso      1.000     O          -0.550984           
         O7        1.0000    0.71490   0.05010   0.04700   Biso      1.000     O          -0.55099  
         O8        1.0000    0.52490   0.97090   0.18440   Biso      1.000     O          -0.546662           
         O9        1.0000    0.87540   0.37970   0.38140   Biso      1.000     O          -0.54323  
         O10       1.0000    0.98140   0.23730   0.51690   Biso      1.000     O          -0.518712           
         O11       1.0000    0.78510   0.94990   0.54700   Biso      1.000     O          -0.550968           
         O12       1.0000    0.97510   0.02910   0.68440   Biso      1.000     O          -0.546654           
         O13       1.0000    0.62460   0.62030   0.88140   Biso      1.000     O          -0.543245           
         O14       1.0000    0.51860   0.76270   0.01690   Biso      1.000     O          -0.518727           
         O15       1.0000    0.47510   0.47090   0.31560   Biso      1.000     O          -0.546666           
         O16       1.0000    0.28510   0.55010   0.45300   Biso      1.000     O          -0.551011 