
##########################################################################
#               Crystallographic Information Format file
#               Produced by PyCifRW module
#
#  This is a CIF file.  CIF has been adopted by the International
#  Union of Crystallography as the standard for data archiving and
#  transmission.
#
#  For information on this file format, follow the CIF links at
#  http://www.iucr.org
##########################################################################

data_image0

_cell_length_a                          8.9454
_cell_length_b                          10.6981
_cell_length_c                          18.4474
_cell_angle_alpha                       90
_cell_angle_beta                        90
_cell_angle_gamma                       90
_symmetry_space_group_name_H-M          'P 1'
_symmetry_int_tables_number             1
loop_
  _symmetry_equiv_pos_as_xyz
         'x, y, z' 
loop_
  _atom_site_label
  _atom_site_occupancy
  _atom_site_fract_x
  _atom_site_fract_y
  _atom_site_fract_z
  _atom_site_thermal_displace_type
  _atom_site_B_iso_or_equiv
  _atom_site_type_symbol
  _atom_site_charge
         C1        1.0000    0.32050   0.38610   0.21760   Biso      1.000     C          0.088382  
         C2        1.0000    0.15580   0.19590   0.90790   Biso      1.000     C          0.21861999999999998           
         C3        1.0000    0.87450   0.48020   0.00100   Biso      1.000     C          0.188659  
         C4        1.0000    0.22900   0.14490   0.21290   Biso      1.000     C          -0.14328  
         C5        1.0000    0.16580   0.23590   0.17050   Biso      1.000     C          0.092757  
         C6        1.0000    0.34750   0.17780   0.25940   Biso      1.000     C          0.036538  
         C7        1.0000    0.38860   0.30010   0.26190   Biso      1.000     C          -0.141323           
         C8        1.0000    0.53570   0.84360   0.53160   Biso      1.000     C          0.280622  
         C9        1.0000    0.93310   0.26200   0.85900   Biso      1.000     C          0.42302399999999996           
         C10       1.0000    0.42200   0.84640   0.58160   Biso      1.000     C          -0.059888           
         C11       1.0000    0.65580   0.69590   0.59210   Biso      1.000     C          0.21861999999999998           
         C12       1.0000    0.37450   0.98020   0.49900   Biso      1.000     C          0.188659  
         C13       1.0000    0.72900   0.85510   0.78710   Biso      1.000     C          -0.14328  
         C14       1.0000    0.66580   0.76410   0.82950   Biso      1.000     C          0.092757  
         C15       1.0000    0.82050   0.61390   0.78240   Biso      1.000     C          0.088382  
         C16       1.0000    0.84750   0.82220   0.74060   Biso      1.000     C          0.036538  
         C17       1.0000    0.88860   0.69990   0.73810   Biso      1.000     C          -0.141323           
         C18       1.0000    0.43310   0.76200   0.64100   Biso      1.000     C          0.423023  
         C19       1.0000    0.92070   0.92230   0.69480   Biso      1.000     C          0.570504  
         C20       1.0000    0.92200   0.34640   0.91840   Biso      1.000     C          -0.059894           
         C21       1.0000    0.92070   0.57770   0.19480   Biso      1.000     C          0.570504  
         C22       1.0000    0.22900   0.35510   0.71290   Biso      1.000     C          -0.14328  
         C23       1.0000    0.16580   0.26410   0.67050   Biso      1.000     C          0.092757  
         C24       1.0000    0.32050   0.11390   0.71760   Biso      1.000     C          0.088382  
         C25       1.0000    0.34750   0.32220   0.75940   Biso      1.000     C          0.036538  
         C26       1.0000    0.38860   0.19990   0.76190   Biso      1.000     C          -0.141323           
         C27       1.0000    0.42070   0.42230   0.80520   Biso      1.000     C          0.570504  
         C28       1.0000    0.53570   0.65640   0.03160   Biso      1.000     C          0.280622  
         C29       1.0000    0.03570   0.34360   0.96840   Biso      1.000     C          0.28062800000000004           
         C30       1.0000    0.42200   0.65360   0.08160   Biso      1.000     C          -0.059888           
         C31       1.0000    0.65580   0.80410   0.09210   Biso      1.000     C          0.21861999999999998           
         C32       1.0000    0.37450   0.51980   0.99900   Biso      1.000     C          0.188659  
         C33       1.0000    0.72900   0.64490   0.28710   Biso      1.000     C          -0.14328  
         C34       1.0000    0.66580   0.73590   0.32950   Biso      1.000     C          0.092757  
         C35       1.0000    0.82050   0.88610   0.28240   Biso      1.000     C          0.088382  
         C36       1.0000    0.84750   0.67780   0.24060   Biso      1.000     C          0.036538  
         C37       1.0000    0.88860   0.80010   0.23810   Biso      1.000     C          -0.141323           
         C38       1.0000    0.43310   0.73800   0.14100   Biso      1.000     C          0.423023  
         C39       1.0000    0.03570   0.15640   0.46840   Biso      1.000     C          0.280622  
         C40       1.0000    0.42070   0.07770   0.30520   Biso      1.000     C          0.570504  
         C41       1.0000    0.93310   0.23800   0.35900   Biso      1.000     C          0.42302399999999996           
         C42       1.0000    0.15580   0.30410   0.40790   Biso      1.000     C          0.21861999999999998           
         C43       1.0000    0.87450   0.01980   0.50100   Biso      1.000     C          0.188659  
         C44       1.0000    0.92200   0.15360   0.41840   Biso      1.000     C          -0.059889           
         H1        1.0000    0.08770   0.21390   0.13970   Biso      1.000     H          0.09916699999999999           
         H2        1.0000    0.35120   0.46900   0.21980   Biso      1.000     H          0.09060700000000001           
         H3        1.0000    0.46320   0.32560   0.29380   Biso      1.000     H          0.130917  
         H4        1.0000    0.25170   0.79890   0.69260   Biso      1.000     H          0.338952  
         H5        1.0000    0.34250   0.69980   0.72830   Biso      1.000     H          0.360321  
         H6        1.0000    0.73620   0.64140   0.59690   Biso      1.000     H          0.066576  
         H7        1.0000    0.32700   0.04200   0.47200   Biso      1.000     H          0.084506  
         H8        1.0000    0.58770   0.78610   0.86030   Biso      1.000     H          0.09916699999999999           
         H9        1.0000    0.19420   0.06300   0.21110   Biso      1.000     H          0.133172  
         H10       1.0000    0.85120   0.53100   0.78020   Biso      1.000     H          0.09060700000000001           
         H11       1.0000    0.75170   0.20110   0.30740   Biso      1.000     H          0.338952  
         H12       1.0000    0.84250   0.30020   0.27170   Biso      1.000     H          0.360321  
         H13       1.0000    0.23620   0.35860   0.40310   Biso      1.000     H          0.066576  
         H14       1.0000    0.82700   0.95800   0.52800   Biso      1.000     H          0.084506  
         H15       1.0000    0.69420   0.93700   0.78890   Biso      1.000     H          0.133172  
         H16       1.0000    0.82700   0.54200   0.02800   Biso      1.000     H          0.084506  
         H17       1.0000    0.96320   0.67440   0.70620   Biso      1.000     H          0.130917  
         H18       1.0000    0.84250   0.19980   0.77170   Biso      1.000     H          0.360321  
         H19       1.0000    0.23620   0.14140   0.90310   Biso      1.000     H          0.066576  
         H20       1.0000    0.19420   0.43700   0.71110   Biso      1.000     H          0.133172  
         H21       1.0000    0.08770   0.28610   0.63970   Biso      1.000     H          0.09916699999999999           
         H22       1.0000    0.46320   0.17440   0.79380   Biso      1.000     H          0.130917  
         H23       1.0000    0.25170   0.70110   0.19260   Biso      1.000     H          0.338952  
         H24       1.0000    0.34250   0.80020   0.22830   Biso      1.000     H          0.360321  
         H25       1.0000    0.73620   0.85860   0.09690   Biso      1.000     H          0.066576  
         H26       1.0000    0.35120   0.03100   0.71980   Biso      1.000     H          0.09060700000000001           
         H27       1.0000    0.69420   0.56300   0.28890   Biso      1.000     H          0.133172  
         H28       1.0000    0.58770   0.71390   0.36030   Biso      1.000     H          0.09916699999999999           
         H29       1.0000    0.85120   0.96900   0.28020   Biso      1.000     H          0.09060700000000001           
         H30       1.0000    0.96320   0.82560   0.20620   Biso      1.000     H          0.130917  
         H31       1.0000    0.75170   0.29890   0.80740   Biso      1.000     H          0.338952  
         H32       1.0000    0.32700   0.45800   0.97200   Biso      1.000     H          0.084506  
         N1        1.0000    0.00610   0.42920   0.02160   Biso      1.000     N          -0.37051799999999996          
         N2        1.0000    0.16070   0.26920   0.96570   Biso      1.000     N          -0.41564700000000004          
         N3        1.0000    0.81760   0.43570   0.93940   Biso      1.000     N          -0.324046           
         N4        1.0000    0.05270   0.18790   0.85500   Biso      1.000     N          -0.44176899999999997          
         N5        1.0000    0.83010   0.25240   0.80640   Biso      1.000     N          -0.698334           
         N6        1.0000    0.50610   0.57080   0.97840   Biso      1.000     N          -0.370517           
         N7        1.0000    0.66070   0.73080   0.03430   Biso      1.000     N          -0.415646           
         N8        1.0000    0.31760   0.56430   0.06060   Biso      1.000     N          -0.324047           
         N9        1.0000    0.33010   0.74760   0.19360   Biso      1.000     N          -0.698333           
         N10       1.0000    0.21150   0.35470   0.17130   Biso      1.000     N          -0.20483800000000002          
         N11       1.0000    0.55270   0.81210   0.14500   Biso      1.000     N          -0.44176899999999997          
         N12       1.0000    0.71150   0.85470   0.32870   Biso      1.000     N          -0.20483800000000002          
         N13       1.0000    0.33010   0.75240   0.69360   Biso      1.000     N          -0.698333           
         N14       1.0000    0.81760   0.06430   0.43940   Biso      1.000     N          -0.324047           
         N15       1.0000    0.31760   0.93570   0.56060   Biso      1.000     N          -0.324047           
         N16       1.0000    0.66070   0.76920   0.53430   Biso      1.000     N          -0.415646           
         N17       1.0000    0.50610   0.92920   0.47840   Biso      1.000     N          -0.370517           
         N18       1.0000    0.71150   0.64530   0.82870   Biso      1.000     N          -0.20483800000000002          
         N19       1.0000    0.83010   0.24760   0.30640   Biso      1.000     N          -0.698334           
         N20       1.0000    0.05270   0.31210   0.35500   Biso      1.000     N          -0.44176899999999997          
         N21       1.0000    0.16070   0.23080   0.46570   Biso      1.000     N          -0.415646           
         N22       1.0000    0.00610   0.07080   0.52160   Biso      1.000     N          -0.370517           
         N23       1.0000    0.21150   0.14530   0.67130   Biso      1.000     N          -0.20483800000000002          
         N24       1.0000    0.55270   0.68790   0.64500   Biso      1.000     N          -0.44176899999999997          
         O1        1.0000    0.87120   0.47260   0.19190   Biso      1.000     O          -0.538091           
         O2        1.0000    0.03860   0.61640   0.16108   Biso      1.000     O          -0.561938           
         O3        1.0000    0.37120   0.97260   0.30810   Biso      1.000     O          -0.538091           
         O4        1.0000    0.53860   0.11640   0.33892   Biso      1.000     O          -0.561938           
         O5        1.0000    0.87120   0.02740   0.69190   Biso      1.000     O          -0.538091           
         O6        1.0000    0.37120   0.52740   0.80810   Biso      1.000     O          -0.538091           
         O7        1.0000    0.53860   0.38360   0.83892   Biso      1.000     O          -0.561938           
         O8        1.0000    0.03860   0.88360   0.66108   Biso      1.000     O          -0.561938           
         Zn1       1.0000    0.63167   0.51460   0.89753   Biso      1.000     Zn          0.696349  
         Zn2       1.0000    0.13167   0.48540   0.10247   Biso      1.000     Zn          0.696349  
         Zn3       1.0000    0.63167   0.98540   0.39753   Biso      1.000     Zn          0.696349  
         Zn4       1.0000    0.13167   0.01460   0.60247   Biso      1.000     Zn          0.696348 