
##########################################################################
#               Crystallographic Information Format file
#               Produced by PyCifRW module
#
#  This is a CIF file.  CIF has been adopted by the International
#  Union of Crystallography as the standard for data archiving and
#  transmission.
#
#  For information on this file format, follow the CIF links at
#  http://www.iucr.org
##########################################################################

data_image0

_cell_length_a                          15.2688
_cell_length_b                          15.3552
_cell_length_c                          15.403
_cell_angle_alpha                       106.787
_cell_angle_beta                        117.059
_cell_angle_gamma                       103.195
_symmetry_space_group_name_H-M          'P 1'
_symmetry_int_tables_number             1
loop_
  _symmetry_equiv_pos_as_xyz
         'x, y, z' 
loop_
  _atom_site_label
  _atom_site_occupancy
  _atom_site_fract_x
  _atom_site_fract_y
  _atom_site_fract_z
  _atom_site_thermal_displace_type
  _atom_site_B_iso_or_equiv
  _atom_site_type_symbol
  _atom_site_charge
         C1        1.0000    0.78550   0.39280   0.41320   Biso      1.000     C          -0.234895           
         C2        1.0000    0.41570   0.86780   0.05210   Biso      1.000     C          -0.143477           
         C3        1.0000    0.32880   0.86980   0.96730   Biso      1.000     C          -0.136755           
         C4        1.0000    0.22350   0.80590   0.92240   Biso      1.000     C          -0.012953           
         C5        1.0000    0.20550   0.73390   0.95590   Biso      1.000     C          -0.120785           
         C6        1.0000    0.29170   0.73000   0.03780   Biso      1.000     C          -0.117532           
         C7        1.0000    0.39700   0.79340   0.08450   Biso      1.000     C          -0.01623  
         C8        1.0000    0.49070   0.79240   0.17620   Biso      1.000     C          0.562567  
         C9        1.0000    0.33940   0.47970   0.08970   Biso      1.000     C          0.65475   
         C10       1.0000    0.35470   0.22660   0.96400   Biso      1.000     C          -0.078627           
         C11       1.0000    0.39320   0.34190   0.02300   Biso      1.000     C          -0.225199           
         C12       1.0000    0.31110   0.36770   0.04230   Biso      1.000     C          -0.159153           
         C13       1.0000    0.19590   0.31010   0.93500   Biso      1.000     C          -0.229757           
         C14       1.0000    0.16710   0.20020   0.88260   Biso      1.000     C          -0.075552           
         C15       1.0000    0.21210   0.07360   0.79270   Biso      1.000     C          -0.39861  
         C16       1.0000    0.91000   0.30530   0.43420   Biso      1.000     C          0.650554  
         C17       1.0000    0.71940   0.43580   0.34420   Biso      1.000     C          -0.075542           
         C18       1.0000    0.77650   0.19410   0.07760   Biso      1.000     C          -0.012956           
         C19       1.0000    0.84280   0.34880   0.36560   Biso      1.000     C          -0.121547           
         C20       1.0000    0.90650   0.42240   0.34680   Biso      1.000     C          -0.23255  
         C21       1.0000    0.84060   0.46920   0.28320   Biso      1.000     C          -0.085322           
         C22       1.0000    0.72480   0.55940   0.27210   Biso      1.000     C          -0.409691           
         C23       1.0000    0.36920   0.97530   0.56680   Biso      1.000     C          0.659939  
         C24       1.0000    0.68170   0.06060   0.72290   Biso      1.000     C          -0.074441           
         C25       1.0000    0.57250   0.06090   0.65540   Biso      1.000     C          -0.240195           
         C26       1.0000    0.47900   0.97780   0.63830   Biso      1.000     C          -0.125601           
         C27       1.0000    0.48270   0.87730   0.59650   Biso      1.000     C          -0.235114           
         C28       1.0000    0.59500   0.88170   0.66810   Biso      1.000     C          -0.073156           
         C29       1.0000    0.12900   0.81050   0.83100   Biso      1.000     C          0.561777  
         C30       1.0000    0.45890   0.33700   0.60020   Biso      1.000     C          0.577214  
         C31       1.0000    0.53820   0.41790   0.60490   Biso      1.000     C          -0.024315           
         C32       1.0000    0.55070   0.51860   0.64640   Biso      1.000     C          -0.125785           
         C33       1.0000    0.60300   0.20660   0.91550   Biso      1.000     C          -0.016235           
         C34       1.0000    0.50930   0.20760   0.82380   Biso      1.000     C          0.562567  
         C35       1.0000    0.66060   0.52030   0.91030   Biso      1.000     C          0.65475   
         C36       1.0000    0.64530   0.77340   0.03600   Biso      1.000     C          -0.078627           
         C37       1.0000    0.60680   0.65810   0.97700   Biso      1.000     C          -0.225199           
         C38       1.0000    0.68890   0.63230   0.95770   Biso      1.000     C          -0.159153           
         C39       1.0000    0.80410   0.68990   0.06500   Biso      1.000     C          -0.229757           
         C40       1.0000    0.83290   0.79980   0.11740   Biso      1.000     C          -0.075552           
         C41       1.0000    0.78790   0.92640   0.20730   Biso      1.000     C          -0.39861  
         C42       1.0000    0.09000   0.69470   0.56580   Biso      1.000     C          0.650554  
         C43       1.0000    0.28060   0.56420   0.65580   Biso      1.000     C          -0.075542           
         C44       1.0000    0.21450   0.60720   0.58680   Biso      1.000     C          -0.234895           
         C45       1.0000    0.15720   0.65120   0.63440   Biso      1.000     C          -0.121547           
         C46       1.0000    0.78880   0.95950   0.74150   Biso      1.000     C          -0.410854           
         C47       1.0000    0.09350   0.57760   0.65320   Biso      1.000     C          -0.23255  
         C48       1.0000    0.27520   0.44060   0.72790   Biso      1.000     C          -0.409691           
         C49       1.0000    0.63080   0.02470   0.43320   Biso      1.000     C          0.659939  
         C50       1.0000    0.31830   0.93940   0.27710   Biso      1.000     C          -0.074441           
         C51       1.0000    0.42750   0.93910   0.34460   Biso      1.000     C          -0.240195           
         C52       1.0000    0.52100   0.02220   0.36170   Biso      1.000     C          -0.125601           
         C53       1.0000    0.51730   0.12270   0.40350   Biso      1.000     C          -0.235115           
         C54       1.0000    0.40500   0.11830   0.33190   Biso      1.000     C          -0.073156           
         C55       1.0000    0.21120   0.04050   0.25850   Biso      1.000     C          -0.410853           
         C56       1.0000    0.77380   0.64980   0.62230   Biso      1.000     C          0.582771  
         C57       1.0000    0.60790   0.39700   0.57600   Biso      1.000     C          -0.137441           
         C58       1.0000    0.68370   0.47270   0.58190   Biso      1.000     C          -0.124554           
         C59       1.0000    0.69380   0.57210   0.61950   Biso      1.000     C          -0.001845           
         C60       1.0000    0.62620   0.59180   0.64960   Biso      1.000     C          -0.119713           
         C61       1.0000    0.15940   0.53080   0.71680   Biso      1.000     C          -0.085322           
         C62       1.0000    0.70830   0.27000   0.96220   Biso      1.000     C          -0.117531           
         C63       1.0000    0.79450   0.26610   0.04410   Biso      1.000     C          -0.120782           
         C64       1.0000    0.87100   0.18950   0.16900   Biso      1.000     C          0.561777  
         C65       1.0000    0.22620   0.35020   0.37770   Biso      1.000     C          0.582771  
         C66       1.0000    0.39210   0.60300   0.42400   Biso      1.000     C          -0.137441           
         C67       1.0000    0.31630   0.52730   0.41810   Biso      1.000     C          -0.124554           
         C68       1.0000    0.30620   0.42790   0.38050   Biso      1.000     C          -0.001844           
         C69       1.0000    0.37380   0.40820   0.35040   Biso      1.000     C          -0.119717           
         C70       1.0000    0.44930   0.48140   0.35360   Biso      1.000     C          -0.125781           
         C71       1.0000    0.46180   0.58210   0.39510   Biso      1.000     C          -0.024315           
         C72       1.0000    0.54110   0.66300   0.39980   Biso      1.000     C          0.577214  
         C73       1.0000    0.58430   0.13220   0.94790   Biso      1.000     C          -0.143476           
         C74       1.0000    0.67120   0.13020   0.03270   Biso      1.000     C          -0.136754           
         H1        1.0000    0.66270   0.38230   0.27150   Biso      1.000     H          0.105297  
         H2        1.0000    0.68500   0.46480   0.37680   Biso      1.000     H          0.11901   
         H3        1.0000    0.73800   0.34090   0.41560   Biso      1.000     H          0.129953  
         H4        1.0000    0.40490   0.18290   0.36310   Biso      1.000     H          0.121002  
         H5        1.0000    0.78580   0.29240   0.29350   Biso      1.000     H          0.098475  
         H6        1.0000    0.93260   0.38860   0.30690   Biso      1.000     H          0.134379  
         H7        1.0000    0.27580   0.06160   0.80620   Biso      1.000     H          0.170151  
         H8        1.0000    0.83890   0.44540   0.48740   Biso      1.000     H          0.119898  
         H9        1.0000    0.17760   0.03540   0.81750   Biso      1.000     H          0.166911  
         H10       1.0000    0.40420   0.37150   0.97900   Biso      1.000     H          0.131805  
         H11       1.0000    0.16460   0.17210   0.93080   Biso      1.000     H          0.115944  
         H12       1.0000    0.19290   0.33710   0.88450   Biso      1.000     H          0.117089  
         H13       1.0000    0.14320   0.31980   0.95090   Biso      1.000     H          0.130015  
         H14       1.0000    0.30910   0.34500   0.09500   Biso      1.000     H          0.088596  
         H15       1.0000    0.96920   0.47540   0.41690   Biso      1.000     H          0.108293  
         H16       1.0000    0.46210   0.37040   0.09260   Biso      1.000     H          0.115801  
         H17       1.0000    0.34900   0.19720   0.01020   Biso      1.000     H          0.104192  
         H18       1.0000    0.09570   0.16650   0.81490   Biso      1.000     H          0.117956  
         H19       1.0000    0.88770   0.52140   0.28070   Biso      1.000     H          0.12697   
         H20       1.0000    0.55820   0.05240   0.58460   Biso      1.000     H          0.111443  
         H21       1.0000    0.66090   0.55040   0.27420   Biso      1.000     H          0.178335  
         H22       1.0000    0.29330   0.52470   0.17670   Biso      1.000     H          0.428727  
         H23       1.0000    0.66240   0.94510   0.60860   Biso      1.000     H          0.276291  
         H24       1.0000    0.84130   0.56220   0.40420   Biso      1.000     H          0.280095  
         H25       1.0000    0.25420   0.21410   0.82060   Biso      1.000     H          0.270412  
         H26       1.0000    0.82720   0.01010   0.81660   Biso      1.000     H          0.166529  
         H27       1.0000    0.77790   0.89490   0.74180   Biso      1.000     H          0.176235  
         H28       1.0000    0.59510   0.81710   0.63690   Biso      1.000     H          0.121002  
         H29       1.0000    0.78490   0.41850   0.20870   Biso      1.000     H          0.109455  
         H30       1.0000    0.61090   0.89560   0.74060   Biso      1.000     H          0.105882  
         H31       1.0000    0.46400   0.85690   0.52230   Biso      1.000     H          0.121121  
         H32       1.0000    0.49150   0.99290   0.71040   Biso      1.000     H          0.100907  
         H33       1.0000    0.57490   0.12550   0.69150   Biso      1.000     H          0.132686  
         H34       1.0000    0.40730   0.21250   0.95050   Biso      1.000     H          0.11485   
         H35       1.0000    0.70170   0.07970   0.79740   Biso      1.000     H          0.107849  
         H36       1.0000    0.73630   0.10960   0.72480   Biso      1.000     H          0.123613  
         H37       1.0000    0.70070   0.52440   0.19640   Biso      1.000     H          0.163968  
         H38       1.0000    0.42940   0.82730   0.59500   Biso      1.000     H          0.127577  
         H39       1.0000    0.22210   0.10510   0.25820   Biso      1.000     H          0.176235  
         H40       1.0000    0.27800   0.68300   0.06220   Biso      1.000     H          0.117033  
         H41       1.0000    0.34190   0.91470   0.94040   Biso      1.000     H          0.116571  
         H42       1.0000    0.82240   0.96460   0.18250   Biso      1.000     H          0.166911  
         H43       1.0000    0.72420   0.93840   0.19380   Biso      1.000     H          0.170151  
         H44       1.0000    0.33730   0.61770   0.72850   Biso      1.000     H          0.105297  
         H45       1.0000    0.17280   0.98990   0.18340   Biso      1.000     H          0.166529  
         H46       1.0000    0.26200   0.65910   0.58440   Biso      1.000     H          0.129954  
         H47       1.0000    0.16110   0.55460   0.51260   Biso      1.000     H          0.119898  
         H48       1.0000    0.21420   0.70760   0.70650   Biso      1.000     H          0.098475  
         H49       1.0000    0.06740   0.61140   0.69310   Biso      1.000     H          0.134379  
         H50       1.0000    0.03080   0.52460   0.58310   Biso      1.000     H          0.108293  
         H51       1.0000    0.11230   0.47860   0.71930   Biso      1.000     H          0.12697   
         H52       1.0000    0.21510   0.58150   0.79130   Biso      1.000     H          0.109455  
         H53       1.0000    0.33910   0.44960   0.72580   Biso      1.000     H          0.178335  
         H54       1.0000    0.29930   0.47560   0.80360   Biso      1.000     H          0.163968  
         H55       1.0000    0.26370   0.89040   0.27520   Biso      1.000     H          0.123613  
         H56       1.0000    0.29830   0.92030   0.20260   Biso      1.000     H          0.107849  
         H57       1.0000    0.44180   0.94760   0.41540   Biso      1.000     H          0.111443  
         H58       1.0000    0.42510   0.87450   0.30850   Biso      1.000     H          0.132686  
         H59       1.0000    0.50850   0.00710   0.28960   Biso      1.000     H          0.100907  
         H60       1.0000    0.53600   0.14310   0.47770   Biso      1.000     H          0.121121  
         H61       1.0000    0.57060   0.17270   0.40500   Biso      1.000     H          0.127577  
         H62       1.0000    0.38910   0.10440   0.25940   Biso      1.000     H          0.105882  
         H63       1.0000    0.90430   0.83350   0.18510   Biso      1.000     H          0.117956  
         H64       1.0000    0.83540   0.82790   0.06920   Biso      1.000     H          0.115944  
         H65       1.0000    0.80710   0.66290   0.11550   Biso      1.000     H          0.117089  
         H66       1.0000    0.85680   0.68020   0.04910   Biso      1.000     H          0.130015  
         H67       1.0000    0.48570   0.91580   0.08710   Biso      1.000     H          0.117157  
         H68       1.0000    0.50860   0.53520   0.67120   Biso      1.000     H          0.114018  
         H69       1.0000    0.63110   0.65670   0.67310   Biso      1.000     H          0.108777  
         H70       1.0000    0.72870   0.45760   0.56070   Biso      1.000     H          0.111289  
         H71       1.0000    0.60370   0.33220   0.55270   Biso      1.000     H          0.1175    
         H72       1.0000    0.70670   0.47530   0.82330   Biso      1.000     H          0.428727  
         H73       1.0000    0.33760   0.05490   0.39140   Biso      1.000     H          0.276291  
         H74       1.0000    0.15870   0.43780   0.59580   Biso      1.000     H          0.280095  
         H75       1.0000    0.74580   0.78590   0.17940   Biso      1.000     H          0.270412  
         H76       1.0000    0.39630   0.66780   0.44730   Biso      1.000     H          0.1175    
         H77       1.0000    0.13510   0.68770   0.92320   Biso      1.000     H          0.119775  
         H78       1.0000    0.27130   0.54240   0.43930   Biso      1.000     H          0.111289  
         H79       1.0000    0.49140   0.46480   0.32880   Biso      1.000     H          0.114017  
         H80       1.0000    0.51430   0.08420   0.91290   Biso      1.000     H          0.117157  
         H81       1.0000    0.65810   0.08530   0.05960   Biso      1.000     H          0.116572  
         H82       1.0000    0.86490   0.31230   0.07680   Biso      1.000     H          0.119774  
         H83       1.0000    0.72200   0.31700   0.93780   Biso      1.000     H          0.117032  
         H84       1.0000    0.59270   0.78750   0.04950   Biso      1.000     H          0.11485   
         H85       1.0000    0.65100   0.80280   0.98980   Biso      1.000     H          0.104192  
         H86       1.0000    0.53790   0.62960   0.90740   Biso      1.000     H          0.115801  
         H87       1.0000    0.59580   0.62850   0.02100   Biso      1.000     H          0.131805  
         H88       1.0000    0.69090   0.65500   0.90500   Biso      1.000     H          0.088595  
         H89       1.0000    0.36890   0.34330   0.32690   Biso      1.000     H          0.108777  
         H90       1.0000    0.31500   0.53520   0.62320   Biso      1.000     H          0.11901   
         La1       1.0000    0.94298   0.80254   0.63424   Biso      1.000     La          1.916455  
         La2       1.0000    0.08488   0.85361   0.43676   Biso      1.000     La          2.050425  
         La3       1.0000    0.32161   0.18393   0.61665   Biso      1.000     La          1.903434  
         La4       1.0000    0.05702   0.19746   0.36576   Biso      1.000     La          1.916454  
         La5       1.0000    0.91512   0.14639   0.56324   Biso      1.000     La          2.050425  
         La6       1.0000    0.67839   0.81607   0.38335   Biso      1.000     La          1.903433  
         N1        1.0000    0.67900   0.95970   0.67670   Biso      1.000     N          0.04122   
         N2        1.0000    0.75200   0.81830   0.14080   Biso      1.000     N          0.038843  
         N3        1.0000    0.21160   0.48650   0.66380   Biso      1.000     N          0.035541  
         N4        1.0000    0.78840   0.51350   0.33620   Biso      1.000     N          0.035541  
         N5        1.0000    0.24800   0.18170   0.85920   Biso      1.000     N          0.038843  
         N6        1.0000    0.32100   0.04030   0.32330   Biso      1.000     N          0.04122   
         O1        1.0000    0.09690   0.29260   0.67720   Biso      1.000     O          -0.842709           
         O2        1.0000    0.17530   0.25600   0.56240   Biso      1.000     O          -0.860257           
         O3        1.0000    0.27920   0.27770   0.74980   Biso      1.000     O          -0.784877           
         O4        1.0000    0.63530   0.95530   0.46080   Biso      1.000     O          -0.640005           
         O5        1.0000    0.41980   0.53190   0.10300   Biso      1.000     O          -0.440826           
         O6        1.0000    0.71250   0.09670   0.46120   Biso      1.000     O          -0.649884           
         O7        1.0000    0.11380   0.91900   0.31500   Biso      1.000     O          -0.850698           
         O8        1.0000    0.18670   0.10830   0.42150   Biso      1.000     O          -0.874738           
         O9        1.0000    0.02360   0.02530   0.23380   Biso      1.000     O          -0.800031           
         O10       1.0000    0.81610   0.62460   0.57220   Biso      1.000     O          -0.608117           
         O11       1.0000    0.13040   0.74320   0.53110   Biso      1.000     O          -0.633681           
         O12       1.0000    0.99660   0.67810   0.54950   Biso      1.000     O          -0.645206           
         O13       1.0000    0.52510   0.27210   0.79200   Biso      1.000     O          -0.604536           
         O14       1.0000    0.95310   0.91970   0.37120   Biso      1.000     O          -0.832704           
         O15       1.0000    0.81780   0.96090   0.40720   Biso      1.000     O          -0.864847           
         O16       1.0000    0.72340   0.49280   0.88830   Biso      1.000     O          -0.559264           
         O17       1.0000    0.58020   0.46810   0.89700   Biso      1.000     O          -0.440826           
         O18       1.0000    0.79800   0.74120   0.67570   Biso      1.000     O          -0.619835           
         O19       1.0000    0.41660   0.14070   0.77550   Biso      1.000     O          -0.626823           
         O20       1.0000    0.96390   0.23450   0.19560   Biso      1.000     O          -0.603785           
         O21       1.0000    0.85160   0.14080   0.21660   Biso      1.000     O          -0.624779           
         O22       1.0000    0.59300   0.63880   0.35930   Biso      1.000     O          -0.612905           
         O23       1.0000    0.55610   0.75070   0.44420   Biso      1.000     O          -0.604655           
         O24       1.0000    0.94290   0.08890   0.40260   Biso      1.000     O          -0.852728           
         O25       1.0000    0.44390   0.24930   0.55580   Biso      1.000     O          -0.604656           
         O26       1.0000    0.18390   0.37540   0.42780   Biso      1.000     O          -0.608117           
         O27       1.0000    0.14840   0.85920   0.78340   Biso      1.000     O          -0.624779           
         O28       1.0000    0.97640   0.97470   0.76620   Biso      1.000     O          -0.800031           
         O29       1.0000    0.81330   0.89170   0.57850   Biso      1.000     O          -0.874738           
         O30       1.0000    0.88620   0.08100   0.68500   Biso      1.000     O          -0.850698           
         O31       1.0000    0.28750   0.90330   0.53880   Biso      1.000     O          -0.649884           
         O32       1.0000    0.36470   0.04470   0.53920   Biso      1.000     O          -0.640006           
         O33       1.0000    0.72080   0.72230   0.25020   Biso      1.000     O          -0.784877           
         O34       1.0000    0.40700   0.36120   0.64070   Biso      1.000     O          -0.612905           
         O35       1.0000    0.90310   0.70740   0.32280   Biso      1.000     O          -0.842709           
         O36       1.0000    0.86960   0.25680   0.46890   Biso      1.000     O          -0.633681           
         O37       1.0000    0.82470   0.74400   0.43760   Biso      1.000     O          -0.860257           
         O38       1.0000    0.05710   0.91110   0.59740   Biso      1.000     O          -0.852728           
         O39       1.0000    0.04690   0.08030   0.62880   Biso      1.000     O          -0.832704           
         O40       1.0000    0.18220   0.03910   0.59280   Biso      1.000     O          -0.864847           
         O41       1.0000    0.27660   0.50720   0.11170   Biso      1.000     O          -0.559265           
         O42       1.0000    0.20200   0.25880   0.32430   Biso      1.000     O          -0.619835           
         O43       1.0000    0.47490   0.72790   0.20800   Biso      1.000     O          -0.604536           
         O44       1.0000    0.58340   0.85930   0.22450   Biso      1.000     O          -0.626823           
         O45       1.0000    0.03610   0.76550   0.80440   Biso      1.000     O          -0.603785           
         O46       1.0000    0.00340   0.32190   0.45050   Biso      1.000     O          -0.645206           
         P1        1.0000    0.87410   0.98320   0.69100   Biso      1.000     P          1.333686  
         P2        1.0000    0.80330   0.69340   0.32440   Biso      1.000     P          1.327472  
         P3        1.0000    0.11750   0.02510   0.64390   Biso      1.000     P          1.368606  
         P4        1.0000    0.12590   0.01680   0.30900   Biso      1.000     P          1.333686  
         P5        1.0000    0.19670   0.30660   0.67560   Biso      1.000     P          1.327472  
         P6        1.0000    0.88250   0.97490   0.35610   Biso      1.000     P          1.368606 