
##########################################################################
#               Crystallographic Information Format file
#               Produced by PyCifRW module
#
#  This is a CIF file.  CIF has been adopted by the International
#  Union of Crystallography as the standard for data archiving and
#  transmission.
#
#  For information on this file format, follow the CIF links at
#  http://www.iucr.org
##########################################################################

data_image0

_cell_length_a                          14.976
_cell_length_b                          15.08
_cell_length_c                          15.116
_cell_angle_alpha                       105.192
_cell_angle_beta                        103.772
_cell_angle_gamma                       117.338
_symmetry_space_group_name_H-M          'P 1'
_symmetry_int_tables_number             1
loop_
  _symmetry_equiv_pos_as_xyz
         'x, y, z' 
loop_
  _atom_site_label
  _atom_site_occupancy
  _atom_site_fract_x
  _atom_site_fract_y
  _atom_site_fract_z
  _atom_site_thermal_displace_type
  _atom_site_B_iso_or_equiv
  _atom_site_type_symbol
  _atom_site_charge
         C1        1.0000    0.71890   0.08860   0.11270   Biso      1.000     C          -0.2347   
         C2        1.0000    0.13650   0.93340   0.52330   Biso      1.000     C          0.681612  
         C3        1.0000    0.95490   0.09620   0.83000   Biso      1.000     C          0.580114  
         C4        1.0000    0.03740   0.10260   0.91290   Biso      1.000     C          -0.010426           
         C5        1.0000    0.04700   0.14260   0.01060   Biso      1.000     C          -0.111881           
         C6        1.0000    0.12570   0.15050   0.09160   Biso      1.000     C          -0.123417           
         C7        1.0000    0.19650   0.12330   0.07120   Biso      1.000     C          0.002081  
         C8        1.0000    0.19070   0.08760   0.97570   Biso      1.000     C          -0.120355           
         C9        1.0000    0.11250   0.07980   0.89610   Biso      1.000     C          -0.123058           
         C10       1.0000    0.27820   0.12640   0.15420   Biso      1.000     C          0.59005   
         C11       1.0000    0.00360   0.31690   0.70660   Biso      1.000     C          0.55187   
         C12       1.0000    0.10170   0.41270   0.70540   Biso      1.000     C          -0.0092   
         C13       1.0000    0.17260   0.52700   0.62430   Biso      1.000     C          -0.128462           
         C14       1.0000    0.27810   0.57720   0.69580   Biso      1.000     C          -0.002839           
         C15       1.0000    0.29460   0.54730   0.77310   Biso      1.000     C          -0.118934           
         C16       1.0000    0.20510   0.46580   0.77810   Biso      1.000     C          -0.115957           
         C17       1.0000    0.81580   0.77710   0.44190   Biso      1.000     C          -0.08857  
         C18       1.0000    0.37420   0.67260   0.69350   Biso      1.000     C          0.547987  
         C19       1.0000    0.92930   0.84740   0.43940   Biso      1.000     C          -0.235871           
         C20       1.0000    0.02030   0.90000   0.62390   Biso      1.000     C          -0.235166           
         C21       1.0000    0.71070   0.29040   0.56730   Biso      1.000     C          -0.395004           
         C22       1.0000    0.85610   0.46540   0.72090   Biso      1.000     C          -0.070909           
         C23       1.0000    0.89570   0.52320   0.83330   Biso      1.000     C          -0.229815           
         C24       1.0000    0.81090   0.54230   0.85880   Biso      1.000     C          -0.13723  
         C25       1.0000    0.69400   0.43450   0.80400   Biso      1.000     C          -0.237272           
         C26       1.0000    0.66310   0.38070   0.69250   Biso      1.000     C          -0.077229           
         C27       1.0000    0.84120   0.58800   0.97570   Biso      1.000     C          0.607354  
         C28       1.0000    0.77430   0.22180   0.93380   Biso      1.000     C          -0.410858           
         C29       1.0000    0.65990   0.21610   0.02770   Biso      1.000     C          -0.081326           
         C30       1.0000    0.59240   0.15360   0.07610   Biso      1.000     C          -0.23375  
         C31       1.0000    0.65740   0.13420   0.15350   Biso      1.000     C          -0.12527  
         C32       1.0000    0.78100   0.15090   0.06230   Biso      1.000     C          -0.075691           
         C33       1.0000    0.58770   0.06520   0.19930   Biso      1.000     C          0.668825  
         C34       1.0000    0.70850   0.75550   0.54160   Biso      1.000     C          -0.405917           
         C35       1.0000    0.90590   0.82740   0.61880   Biso      1.000     C          -0.074442           
         C36       1.0000    0.02230   0.85930   0.52100   Biso      1.000     C          -0.134919           
         C37       1.0000    0.28930   0.70960   0.43270   Biso      1.000     C          -0.395004           
         C38       1.0000    0.08420   0.44280   0.62980   Biso      1.000     C          -0.129861           
         C39       1.0000    0.10430   0.47680   0.16670   Biso      1.000     C          -0.229815           
         C40       1.0000    0.96260   0.89740   0.08710   Biso      1.000     C          -0.010426           
         C41       1.0000    0.95300   0.85740   0.98940   Biso      1.000     C          -0.11188  
         C42       1.0000    0.87430   0.84950   0.90840   Biso      1.000     C          -0.123418           
         C43       1.0000    0.14390   0.53460   0.27910   Biso      1.000     C          -0.070909           
         C44       1.0000    0.80930   0.91240   0.02430   Biso      1.000     C          -0.120363           
         C45       1.0000    0.88750   0.92020   0.10390   Biso      1.000     C          -0.123057           
         C46       1.0000    0.72180   0.87360   0.84580   Biso      1.000     C          0.590049  
         C47       1.0000    0.99640   0.68310   0.29340   Biso      1.000     C          0.55187   
         C48       1.0000    0.89830   0.58730   0.29460   Biso      1.000     C          -0.0092   
         C49       1.0000    0.91580   0.55720   0.37020   Biso      1.000     C          -0.129861           
         C50       1.0000    0.82740   0.47300   0.37570   Biso      1.000     C          -0.128462           
         C51       1.0000    0.72190   0.42280   0.30420   Biso      1.000     C          -0.002839           
         C52       1.0000    0.70540   0.45270   0.22690   Biso      1.000     C          -0.118934           
         C53       1.0000    0.79490   0.53420   0.22190   Biso      1.000     C          -0.115957           
         C54       1.0000    0.62580   0.32740   0.30650   Biso      1.000     C          0.547987  
         C55       1.0000    0.04510   0.90380   0.17000   Biso      1.000     C          0.580114  
         C56       1.0000    0.86350   0.06660   0.47670   Biso      1.000     C          0.681612  
         C57       1.0000    0.80350   0.87670   0.92880   Biso      1.000     C          0.002088  
         C58       1.0000    0.07070   0.15260   0.56060   Biso      1.000     C          -0.235872           
         C59       1.0000    0.18910   0.45770   0.14120   Biso      1.000     C          -0.13723  
         C60       1.0000    0.30600   0.56550   0.19600   Biso      1.000     C          -0.237272           
         C61       1.0000    0.18420   0.22290   0.55810   Biso      1.000     C          -0.08857  
         C62       1.0000    0.15880   0.41200   0.02430   Biso      1.000     C          0.607354  
         C63       1.0000    0.22570   0.77820   0.06620   Biso      1.000     C          -0.410858           
         C64       1.0000    0.34010   0.78390   0.97230   Biso      1.000     C          -0.081325           
         C65       1.0000    0.40760   0.84640   0.92390   Biso      1.000     C          -0.23375  
         C66       1.0000    0.33690   0.61930   0.30750   Biso      1.000     C          -0.077229           
         C67       1.0000    0.28110   0.91140   0.88730   Biso      1.000     C          -0.234701           
         C68       1.0000    0.21900   0.84910   0.93770   Biso      1.000     C          -0.075691           
         C69       1.0000    0.41230   0.93480   0.80070   Biso      1.000     C          0.668825  
         C70       1.0000    0.29150   0.24450   0.45840   Biso      1.000     C          -0.405917           
         C71       1.0000    0.09410   0.17260   0.38120   Biso      1.000     C          -0.074442           
         C72       1.0000    0.97970   0.10000   0.37610   Biso      1.000     C          -0.235167           
         C73       1.0000    0.97770   0.14070   0.47900   Biso      1.000     C          -0.134919           
         C74       1.0000    0.34260   0.86580   0.84650   Biso      1.000     C          -0.12527  
         H1        1.0000    0.07350   0.18610   0.62560   Biso      1.000     H          0.13331   
         H2        1.0000    0.05500   0.08040   0.54970   Biso      1.000     H          0.114695  
         H3        1.0000    0.24100   0.22660   0.60790   Biso      1.000     H          0.124967  
         H4        1.0000    0.20260   0.29680   0.57370   Biso      1.000     H          0.107865  
         H5        1.0000    0.00050   0.83440   0.97650   Biso      1.000     H          0.105684  
         H6        1.0000    0.83910   0.44980   0.42840   Biso      1.000     H          0.11827   
         H7        1.0000    0.75990   0.93260   0.03680   Biso      1.000     H          0.108966  
         H8        1.0000    0.88840   0.94030   0.17000   Biso      1.000     H          0.11142   
         H9        1.0000    0.63170   0.41850   0.17770   Biso      1.000     H          0.121912  
         H10       1.0000    0.78450   0.55330   0.16630   Biso      1.000     H          0.095712  
         H11       1.0000    0.99190   0.21310   0.49460   Biso      1.000     H          0.100034  
         H12       1.0000    0.87050   0.82600   0.84140   Biso      1.000     H          0.110617  
         H13       1.0000    0.96090   0.02560   0.35660   Biso      1.000     H          0.1218    
         H14       1.0000    0.98970   0.59420   0.42020   Biso      1.000     H          0.114519  
         H15       1.0000    0.09450   0.14650   0.31620   Biso      1.000     H          0.120167  
         H16       1.0000    0.52950   0.08300   0.02470   Biso      1.000     H          0.110039  
         H17       1.0000    0.71370   0.20580   0.20790   Biso      1.000     H          0.100359  
         H18       1.0000    0.92570   0.09960   0.32650   Biso      1.000     H          0.133203  
         H19       1.0000    0.66520   0.01330   0.06380   Biso      1.000     H          0.116361  
         H20       1.0000    0.81270   0.11520   0.03290   Biso      1.000     H          0.120889  
         H21       1.0000    0.84030   0.22400   0.11250   Biso      1.000     H          0.102372  
         H22       1.0000    0.66940   0.68270   0.48810   Biso      1.000     H          0.163102  
         H23       1.0000    0.56540   0.19380   0.10770   Biso      1.000     H          0.136234  
         H24       1.0000    0.71810   0.74910   0.60420   Biso      1.000     H          0.179163  
         H25       1.0000    0.90550   0.85350   0.68380   Biso      1.000     H          0.120167  
         H26       1.0000    0.07430   0.90040   0.67350   Biso      1.000     H          0.133203  
         H27       1.0000    0.03910   0.97440   0.64340   Biso      1.000     H          0.121799  
         H28       1.0000    0.00810   0.78690   0.50540   Biso      1.000     H          0.100034  
         H29       1.0000    0.92650   0.81390   0.37440   Biso      1.000     H          0.13331   
         H30       1.0000    0.94500   0.91960   0.45030   Biso      1.000     H          0.114695  
         H31       1.0000    0.75900   0.77340   0.39210   Biso      1.000     H          0.124967  
         H32       1.0000    0.88850   0.75360   0.60070   Biso      1.000     H          0.102942  
         H33       1.0000    0.79740   0.70320   0.42630   Biso      1.000     H          0.107865  
         H34       1.0000    0.61340   0.22010   0.97510   Biso      1.000     H          0.12503   
         H35       1.0000    0.80130   0.29850   0.96730   Biso      1.000     H          0.161978  
         H36       1.0000    0.79930   0.62220   0.06590   Biso      1.000     H          0.420997  
         H37       1.0000    0.75270   0.31810   0.70920   Biso      1.000     H          0.271187  
         H38       1.0000    0.65630   0.09160   0.93630   Biso      1.000     H          0.278068  
         H39       1.0000    0.83600   0.89180   0.55720   Biso      1.000     H          0.278207  
         H40       1.0000    0.67540   0.31510   0.52790   Biso      1.000     H          0.170452  
         H41       1.0000    0.77570   0.30490   0.55640   Biso      1.000     H          0.168673  
         H42       1.0000    0.84910   0.51220   0.69120   Biso      1.000     H          0.101696  
         H43       1.0000    0.71740   0.29020   0.07730   Biso      1.000     H          0.10548   
         H44       1.0000    0.90930   0.45270   0.70620   Biso      1.000     H          0.114107  
         H45       1.0000    0.90450   0.47720   0.86320   Biso      1.000     H          0.132873  
         H46       1.0000    0.80870   0.59540   0.83610   Biso      1.000     H          0.094007  
         H47       1.0000    0.64080   0.44970   0.81430   Biso      1.000     H          0.132466  
         H48       1.0000    0.69360   0.38430   0.83230   Biso      1.000     H          0.116334  
         H49       1.0000    0.59040   0.31370   0.65800   Biso      1.000     H          0.123529  
         H50       1.0000    0.66340   0.43120   0.66480   Biso      1.000     H          0.113608  
         H51       1.0000    0.83700   0.21650   0.94250   Biso      1.000     H          0.183657  
         H52       1.0000    0.96610   0.59230   0.86180   Biso      1.000     H          0.121318  
         H53       1.0000    0.99950   0.16560   0.02350   Biso      1.000     H          0.105684  
         H54       1.0000    0.76860   0.08880   0.16640   Biso      1.000     H          0.134019  
         H55       1.0000    0.24010   0.06740   0.96320   Biso      1.000     H          0.108966  
         H56       1.0000    0.33660   0.56880   0.33520   Biso      1.000     H          0.113608  
         H57       1.0000    0.16300   0.78350   0.05750   Biso      1.000     H          0.183657  
         H58       1.0000    0.19870   0.70150   0.03270   Biso      1.000     H          0.161978  
         H59       1.0000    0.28260   0.70980   0.92270   Biso      1.000     H          0.10548   
         H60       1.0000    0.38660   0.77990   0.02490   Biso      1.000     H          0.12503   
         H61       1.0000    0.43460   0.80620   0.89230   Biso      1.000     H          0.136235  
         H62       1.0000    0.47050   0.91700   0.97530   Biso      1.000     H          0.110039  
         H63       1.0000    0.28630   0.79420   0.79210   Biso      1.000     H          0.100359  
         H64       1.0000    0.23140   0.91120   0.83360   Biso      1.000     H          0.134019  
         H65       1.0000    0.33480   0.98670   0.93620   Biso      1.000     H          0.116361  
         H66       1.0000    0.18730   0.88480   0.96710   Biso      1.000     H          0.120889  
         H67       1.0000    0.15970   0.77600   0.88750   Biso      1.000     H          0.102372  
         H68       1.0000    0.12950   0.17400   0.15860   Biso      1.000     H          0.110617  
         H69       1.0000    0.28190   0.25090   0.39580   Biso      1.000     H          0.179163  
         H70       1.0000    0.11150   0.24640   0.39930   Biso      1.000     H          0.102942  
         H71       1.0000    0.40960   0.68630   0.34200   Biso      1.000     H          0.123529  
         H72       1.0000    0.30640   0.61570   0.16770   Biso      1.000     H          0.116334  
         H73       1.0000    0.33060   0.31730   0.51190   Biso      1.000     H          0.163102  
         H74       1.0000    0.19130   0.40460   0.16390   Biso      1.000     H          0.094007  
         H75       1.0000    0.35920   0.55030   0.18570   Biso      1.000     H          0.132467  
         H76       1.0000    0.01030   0.40580   0.57980   Biso      1.000     H          0.114519  
         H77       1.0000    0.16090   0.55020   0.57160   Biso      1.000     H          0.11827   
         H78       1.0000    0.36830   0.58150   0.82230   Biso      1.000     H          0.121912  
         H79       1.0000    0.21550   0.44670   0.83370   Biso      1.000     H          0.095712  
         H80       1.0000    0.20070   0.37780   0.93410   Biso      1.000     H          0.420997  
         H81       1.0000    0.24730   0.68190   0.29080   Biso      1.000     H          0.271187  
         H82       1.0000    0.34370   0.90840   0.06370   Biso      1.000     H          0.278068  
         H83       1.0000    0.11160   0.05970   0.83000   Biso      1.000     H          0.111421  
         H84       1.0000    0.32460   0.68490   0.47210   Biso      1.000     H          0.170452  
         H85       1.0000    0.22430   0.69510   0.44360   Biso      1.000     H          0.168673  
         H86       1.0000    0.15090   0.48780   0.30880   Biso      1.000     H          0.101695  
         H87       1.0000    0.09070   0.54730   0.29380   Biso      1.000     H          0.114107  
         H88       1.0000    0.03390   0.40770   0.13820   Biso      1.000     H          0.121318  
         H89       1.0000    0.16400   0.10820   0.44280   Biso      1.000     H          0.278207  
         H90       1.0000    0.09550   0.52280   0.13680   Biso      1.000     H          0.132873  
         N1        1.0000    0.28930   0.83960   0.01610   Biso      1.000     N          0.045075  
         N2        1.0000    0.18130   0.17750   0.45770   Biso      1.000     N          0.053283  
         N3        1.0000    0.25330   0.64250   0.32460   Biso      1.000     N          0.033638  
         N4        1.0000    0.81870   0.82250   0.54230   Biso      1.000     N          0.053283  
         N5        1.0000    0.71070   0.16040   0.98390   Biso      1.000     N          0.045075  
         N6        1.0000    0.74670   0.35750   0.67540   Biso      1.000     N          0.033638  
         O1        1.0000    0.94120   0.05390   0.73980   Biso      1.000     O          -0.653038           
         O2        1.0000    0.32690   0.94420   0.25090   Biso      1.000     O          -0.94029  
         O3        1.0000    0.22040   0.75730   0.23200   Biso      1.000     O          -0.823505           
         O4        1.0000    0.45640   0.87600   0.42150   Biso      1.000     O          -0.8783   
         O5        1.0000    0.06560   0.38450   0.96960   Biso      1.000     O          -0.498076           
         O6        1.0000    0.31820   0.91280   0.46330   Biso      1.000     O          -0.943133           
         O7        1.0000    0.44440   0.90640   0.59300   Biso      1.000     O          -0.930758           
         O8        1.0000    0.32000   0.07250   0.13080   Biso      1.000     O          -0.650248           
         O9        1.0000    0.30450   0.17990   0.24510   Biso      1.000     O          -0.632676           
         O10       1.0000    0.89700   0.13140   0.84890   Biso      1.000     O          -0.621036           
         O11       1.0000    0.47220   0.70200   0.74000   Biso      1.000     O          -0.627748           
         O12       1.0000    0.22560   0.40180   0.99790   Biso      1.000     O          -0.466841           
         O13       1.0000    0.40750   0.82970   0.21760   Biso      1.000     O          -0.891553           
         O14       1.0000    0.64400   0.27570   0.35550   Biso      1.000     O          -0.636766           
         O15       1.0000    0.10300   0.86860   0.15110   Biso      1.000     O          -0.621036           
         O16       1.0000    0.05880   0.94610   0.26020   Biso      1.000     O          -0.653038           
         O17       1.0000    0.52780   0.29800   0.26000   Biso      1.000     O          -0.627748           
         O18       1.0000    0.98250   0.71440   0.22500   Biso      1.000     O          -0.62623  
         O19       1.0000    0.09070   0.73300   0.36390   Biso      1.000     O          -0.640052           
         O20       1.0000    0.86100   0.04170   0.54850   Biso      1.000     O          -0.673399           
         O21       1.0000    0.78150   0.03790   0.40260   Biso      1.000     O          -0.682492           
         O22       1.0000    0.47890   0.26010   0.46570   Biso      1.000     O          -0.841935           
         O23       1.0000    0.31080   0.07610   0.38570   Biso      1.000     O          -0.941643           
         O24       1.0000    0.38770   0.17770   0.57610   Biso      1.000     O          -0.90396  
         O25       1.0000    0.35600   0.72430   0.64450   Biso      1.000     O          -0.636766           
         O26       1.0000    0.37070   0.97320   0.75130   Biso      1.000     O          -0.688938           
         O27       1.0000    0.50370   0.94640   0.81550   Biso      1.000     O          -0.658441           
         O28       1.0000    0.01750   0.28560   0.77500   Biso      1.000     O          -0.62623  
         O29       1.0000    0.68000   0.92750   0.86920   Biso      1.000     O          -0.650247           
         O30       1.0000    0.13900   0.95830   0.45150   Biso      1.000     O          -0.673399           
         O31       1.0000    0.69550   0.82010   0.75490   Biso      1.000     O          -0.632676           
         O32       1.0000    0.90930   0.26700   0.63610   Biso      1.000     O          -0.640052           
         O33       1.0000    0.54360   0.12400   0.57850   Biso      1.000     O          -0.8783   
         O34       1.0000    0.68180   0.08720   0.53670   Biso      1.000     O          -0.943133           
         O35       1.0000    0.93440   0.61550   0.03040   Biso      1.000     O          -0.498077           
         O36       1.0000    0.77440   0.59820   0.00210   Biso      1.000     O          -0.466841           
         O37       1.0000    0.77960   0.24270   0.76800   Biso      1.000     O          -0.823505           
         O38       1.0000    0.55560   0.09360   0.40700   Biso      1.000     O          -0.930758           
         O39       1.0000    0.59250   0.17030   0.78240   Biso      1.000     O          -0.891553           
         O40       1.0000    0.49630   0.05360   0.18450   Biso      1.000     O          -0.658441           
         O41       1.0000    0.62930   0.02680   0.24870   Biso      1.000     O          -0.688938           
         O42       1.0000    0.61230   0.82230   0.42390   Biso      1.000     O          -0.90396  
         O43       1.0000    0.68920   0.92390   0.61430   Biso      1.000     O          -0.941643           
         O44       1.0000    0.52110   0.73990   0.53430   Biso      1.000     O          -0.841935           
         O45       1.0000    0.21850   0.96210   0.59740   Biso      1.000     O          -0.682492           
         O46       1.0000    0.67310   0.05580   0.74910   Biso      1.000     O          -0.94029  
         P1        1.0000    0.61590   0.13940   0.52200   Biso      1.000     P          1.413095  
         P2        1.0000    0.69360   0.16900   0.79840   Biso      1.000     P          1.377554  
         P3        1.0000    0.38410   0.86060   0.47800   Biso      1.000     P          1.413095  
         P4        1.0000    0.30640   0.83100   0.20160   Biso      1.000     P          1.377554  
         P5        1.0000    0.37410   0.18630   0.47680   Biso      1.000     P          1.374087  
         P6        1.0000    0.62590   0.81370   0.52320   Biso      1.000     P          1.374087  
         Tb1       1.0000    0.58388   0.93913   0.35849   Biso      1.000     Tb          2.250867  
         Tb2       1.0000    0.44266   0.13210   0.30245   Biso      1.000     Tb          2.117017  
         Tb3       1.0000    0.18351   0.88878   0.32022   Biso      1.000     Tb          2.112594  
         Tb4       1.0000    0.41612   0.06087   0.64151   Biso      1.000     Tb          2.250867  
         Tb5       1.0000    0.55734   0.86790   0.69755   Biso      1.000     Tb          2.117017  
         Tb6       1.0000    0.81649   0.11122   0.67978   Biso      1.000     Tb          2.112594 