
##########################################################################
#               Crystallographic Information Format file
#               Produced by PyCifRW module
#
#  This is a CIF file.  CIF has been adopted by the International
#  Union of Crystallography as the standard for data archiving and
#  transmission.
#
#  For information on this file format, follow the CIF links at
#  http://www.iucr.org
##########################################################################

data_image0

_cell_length_a                          10.9825
_cell_length_b                          11.6012
_cell_length_c                          16.8578
_cell_angle_alpha                       90
_cell_angle_beta                        90
_cell_angle_gamma                       94.758
_symmetry_space_group_name_H-M          'P 1'
_symmetry_int_tables_number             1
loop_
  _symmetry_equiv_pos_as_xyz
         'x, y, z' 
loop_
  _atom_site_label
  _atom_site_occupancy
  _atom_site_fract_x
  _atom_site_fract_y
  _atom_site_fract_z
  _atom_site_thermal_displace_type
  _atom_site_B_iso_or_equiv
  _atom_site_type_symbol
  _atom_site_charge
         C1        1.0000    0.78390   0.98710   0.95906   Biso      1.000     C          -0.162607           
         C2        1.0000    0.26040   0.59190   0.90460   Biso      1.000     C          0.094696  
         C3        1.0000    0.26280   0.53090   0.97440   Biso      1.000     C          -0.166502           
         C4        1.0000    0.35540   0.55850   0.02818   Biso      1.000     C          0.063     
         C5        1.0000    0.44000   0.64860   0.00984   Biso      1.000     C          -0.180361           
         C6        1.0000    0.43020   0.70560   0.93830   Biso      1.000     C          0.09211   
         C7        1.0000    0.40300   0.07020   0.28651   Biso      1.000     C          0.353203  
         C8        1.0000    0.21010   0.06840   0.11280   Biso      1.000     C          0.089861  
         C9        1.0000    0.21610   0.01290   0.04094   Biso      1.000     C          -0.162601           
         C10       1.0000    0.15530   0.05440   0.97677   Biso      1.000     C          0.062716  
         C11       1.0000    0.09210   0.15130   0.98728   Biso      1.000     C          -0.180538           
         C12       1.0000    0.09400   0.20310   0.06088   Biso      1.000     C          0.088648  
         C13       1.0000    0.35920   0.49120   0.10131   Biso      1.000     C          0.285913  
         C14       1.0000    0.15670   0.99150   0.90168   Biso      1.000     C          0.28912   
         C15       1.0000    0.06980   0.29440   0.43830   Biso      1.000     C          0.092109  
         C16       1.0000    0.06000   0.35140   0.50984   Biso      1.000     C          -0.180364           
         C17       1.0000    0.14460   0.44150   0.52818   Biso      1.000     C          0.063002  
         C18       1.0000    0.23720   0.46910   0.47440   Biso      1.000     C          -0.166501           
         C19       1.0000    0.23960   0.40810   0.40460   Biso      1.000     C          0.094696  
         C20       1.0000    0.14080   0.50880   0.60131   Biso      1.000     C          0.285913  
         C21       1.0000    0.07180   0.57250   0.71098   Biso      1.000     C          0.358971  
         C22       1.0000    0.28990   0.93160   0.61280   Biso      1.000     C          0.089861  
         C23       1.0000    0.28390   0.98710   0.54094   Biso      1.000     C          -0.162601           
         C24       1.0000    0.34470   0.94560   0.47677   Biso      1.000     C          0.062716  
         C25       1.0000    0.40790   0.84870   0.48728   Biso      1.000     C          -0.180538           
         C26       1.0000    0.09700   0.92980   0.78651   Biso      1.000     C          0.353203  
         C27       1.0000    0.42820   0.42750   0.21098   Biso      1.000     C          0.358971  
         C28       1.0000    0.78990   0.93160   0.88720   Biso      1.000     C          0.089868  
         C29       1.0000    0.84470   0.94560   0.02323   Biso      1.000     C          0.062716  
         C30       1.0000    0.57180   0.57250   0.78902   Biso      1.000     C          0.358971  
         C31       1.0000    0.64080   0.50880   0.89869   Biso      1.000     C          0.285913  
         C32       1.0000    0.73960   0.40810   0.09540   Biso      1.000     C          0.094696  
         C33       1.0000    0.73720   0.46910   0.02560   Biso      1.000     C          -0.166502           
         C34       1.0000    0.64460   0.44150   0.97182   Biso      1.000     C          0.063     
         C35       1.0000    0.56000   0.35140   0.99016   Biso      1.000     C          -0.180361           
         C36       1.0000    0.56980   0.29440   0.06170   Biso      1.000     C          0.09211   
         C37       1.0000    0.59700   0.92980   0.71349   Biso      1.000     C          0.353203  
         C38       1.0000    0.65670   0.99150   0.59832   Biso      1.000     C          0.28912   
         C39       1.0000    0.59400   0.20310   0.43912   Biso      1.000     C          0.088641  
         C40       1.0000    0.59210   0.15130   0.51272   Biso      1.000     C          -0.180534           
         C41       1.0000    0.65530   0.05440   0.52323   Biso      1.000     C          0.062717  
         C42       1.0000    0.71610   0.01290   0.45906   Biso      1.000     C          -0.162606           
         C43       1.0000    0.71010   0.06840   0.38720   Biso      1.000     C          0.089868  
         C44       1.0000    0.92820   0.42750   0.28902   Biso      1.000     C          0.358971  
         C45       1.0000    0.85920   0.49120   0.39869   Biso      1.000     C          0.285913  
         C46       1.0000    0.76040   0.59190   0.59540   Biso      1.000     C          0.094696  
         C47       1.0000    0.76280   0.53090   0.52560   Biso      1.000     C          -0.166502           
         C48       1.0000    0.85540   0.55850   0.47182   Biso      1.000     C          0.063     
         C49       1.0000    0.94000   0.64860   0.49016   Biso      1.000     C          -0.180361           
         C50       1.0000    0.93020   0.70560   0.56170   Biso      1.000     C          0.09211   
         C51       1.0000    0.90300   0.07020   0.21349   Biso      1.000     C          0.353203  
         C52       1.0000    0.84330   0.00850   0.09832   Biso      1.000     C          0.28912   
         C53       1.0000    0.90600   0.79690   0.93912   Biso      1.000     C          0.088641  
         C54       1.0000    0.90790   0.84870   0.01272   Biso      1.000     C          -0.180531           
         C55       1.0000    0.40600   0.79690   0.56088   Biso      1.000     C          0.088648  
         C56       1.0000    0.34330   0.00850   0.40168   Biso      1.000     C          0.28912   
         Cd1       1.0000    0.83751   0.75514   0.74592   Biso      1.000     Cd          0.669581  
         Cd2       1.0000    0.33751   0.75514   0.75408   Biso      1.000     Cd          0.669581  
         Cd3       1.0000    0.66249   0.24486   0.24592   Biso      1.000     Cd          0.669581  
         Cd4       1.0000    0.16249   0.24486   0.25408   Biso      1.000     Cd          0.669581  
         H1        1.0000    0.44760   0.73090   0.56730   Biso      1.000     H          0.093133  
         H2        1.0000    0.45090   0.81900   0.44550   Biso      1.000     H          0.138139  
         H3        1.0000    0.23950   0.05150   0.53570   Biso      1.000     H          0.137545  
         H4        1.0000    0.25160   0.96220   0.65630   Biso      1.000     H          0.086894  
         H5        1.0000    0.30200   0.42840   0.36870   Biso      1.000     H          0.084529  
         H6        1.0000    0.29730   0.52820   0.48530   Biso      1.000     H          0.134963  
         H7        1.0000    0.01190   0.23370   0.42630   Biso      1.000     H          0.093551  
         H8        1.0000    0.48810   0.76630   0.92630   Biso      1.000     H          0.09355   
         H9        1.0000    0.05240   0.26910   0.06730   Biso      1.000     H          0.093133  
         H10       1.0000    0.04910   0.18100   0.94550   Biso      1.000     H          0.138139  
         H11       1.0000    0.26050   0.94850   0.03570   Biso      1.000     H          0.137545  
         H12       1.0000    0.24840   0.03780   0.15630   Biso      1.000     H          0.086894  
         H13       1.0000    0.80200   0.42840   0.13130   Biso      1.000     H          0.084529  
         H14       1.0000    0.99720   0.32910   0.54500   Biso      1.000     H          0.137835  
         H15       1.0000    0.50280   0.67090   0.04500   Biso      1.000     H          0.137835  
         H16       1.0000    0.79730   0.52820   0.01470   Biso      1.000     H          0.134963  
         H17       1.0000    0.19800   0.57160   0.86870   Biso      1.000     H          0.084529  
         H18       1.0000    0.20270   0.47180   0.98530   Biso      1.000     H          0.134963  
         H19       1.0000    0.49720   0.32910   0.95500   Biso      1.000     H          0.137835  
         H20       1.0000    0.51190   0.23370   0.07370   Biso      1.000     H          0.09355   
         H21       1.0000    0.54910   0.18100   0.55450   Biso      1.000     H          0.138139  
         H22       1.0000    0.76050   0.94850   0.46430   Biso      1.000     H          0.137545  
         H23       1.0000    0.74840   0.03780   0.34370   Biso      1.000     H          0.086893  
         H24       1.0000    0.69800   0.57160   0.63130   Biso      1.000     H          0.084529  
         H25       1.0000    0.55240   0.26910   0.43270   Biso      1.000     H          0.093134  
         H26       1.0000    0.70270   0.47180   0.51470   Biso      1.000     H          0.134963  
         H27       1.0000    0.00280   0.67090   0.45500   Biso      1.000     H          0.137835  
         H28       1.0000    0.98810   0.76630   0.57370   Biso      1.000     H          0.09355   
         H29       1.0000    0.94760   0.73090   0.93270   Biso      1.000     H          0.093134  
         H30       1.0000    0.95090   0.81900   0.05450   Biso      1.000     H          0.138139  
         H31       1.0000    0.73950   0.05150   0.96430   Biso      1.000     H          0.137545  
         H32       1.0000    0.75160   0.96220   0.84370   Biso      1.000     H          0.086893  
         N1        1.0000    0.30830   0.12470   0.30722   Biso      1.000     N          -0.248537           
         N2        1.0000    0.34200   0.67790   0.88564   Biso      1.000     N          -0.207286           
         N3        1.0000    0.27780   0.41390   0.12531   Biso      1.000     N          -0.228149           
         N4        1.0000    0.32130   0.37260   0.19701   Biso      1.000     N          -0.25355  
         N5        1.0000    0.84780   0.83630   0.87669   Biso      1.000     N          -0.208483           
         N6        1.0000    0.84200   0.67790   0.61436   Biso      1.000     N          -0.207286           
         N7        1.0000    0.80830   0.12470   0.19278   Biso      1.000     N          -0.248537           
         N8        1.0000    0.72970   0.91510   0.61755   Biso      1.000     N          -0.238469           
         N9        1.0000    0.77780   0.41390   0.37469   Biso      1.000     N          -0.228149           
         N10       1.0000    0.82130   0.37260   0.30299   Biso      1.000     N          -0.25355  
         N11       1.0000    0.27030   0.08490   0.38245   Biso      1.000     N          -0.238464           
         N12       1.0000    0.65220   0.16370   0.37669   Biso      1.000     N          -0.208483           
         N13       1.0000    0.77030   0.08490   0.11755   Biso      1.000     N          -0.238464           
         N14       1.0000    0.34780   0.83630   0.62331   Biso      1.000     N          -0.208483           
         N15       1.0000    0.67870   0.62740   0.80299   Biso      1.000     N          -0.253554           
         N16       1.0000    0.22220   0.58610   0.62531   Biso      1.000     N          -0.228149           
         N17       1.0000    0.15800   0.32210   0.38564   Biso      1.000     N          -0.207286           
         N18       1.0000    0.19170   0.87530   0.80722   Biso      1.000     N          -0.248537           
         N19       1.0000    0.22970   0.91510   0.88245   Biso      1.000     N          -0.238464           
         N20       1.0000    0.15220   0.16370   0.12331   Biso      1.000     N          -0.208483           
         N21       1.0000    0.72220   0.58610   0.87469   Biso      1.000     N          -0.228145           
         N22       1.0000    0.69170   0.87530   0.69278   Biso      1.000     N          -0.248532           
         N23       1.0000    0.17870   0.62740   0.69701   Biso      1.000     N          -0.25355  
         N24       1.0000    0.65800   0.32210   0.11436   Biso      1.000     N          -0.207286           
         O1        1.0000    0.07173   0.00787   0.84508   Biso      1.000     O          -0.181297           
         O2        1.0000    0.04341   0.49406   0.65078   Biso      1.000     O          -0.181326           
         O3        1.0000    0.42827   0.99213   0.34508   Biso      1.000     O          -0.181297           
         O4        1.0000    0.45659   0.50594   0.15078   Biso      1.000     O          -0.181327           
         O5        1.0000    0.92827   0.99213   0.15492   Biso      1.000     O          -0.181297           
         O6        1.0000    0.95659   0.50594   0.34922   Biso      1.000     O          -0.181326           
         O7        1.0000    0.54341   0.49406   0.84922   Biso      1.000     O          -0.181327           
         O8        1.0000    0.57173   0.00787   0.65492   Biso      1.000     O          -0.181297           
         S1        1.0000    0.50862   0.91892   0.79625   Biso      1.000     S          -0.449014           
         S2        1.0000    0.02619   0.41952   0.21166   Biso      1.000     S          -0.4683   
         S3        1.0000    0.99138   0.08108   0.29625   Biso      1.000     S          -0.449014           
         S4        1.0000    0.52619   0.41952   0.28834   Biso      1.000     S          -0.4683   
         S5        1.0000    0.97381   0.58048   0.78834   Biso      1.000     S          -0.4683   
         S6        1.0000    0.00862   0.91892   0.70375   Biso      1.000     S          -0.449014           
         S7        1.0000    0.47381   0.58048   0.71166   Biso      1.000     S          -0.4683   
         S8        1.0000    0.49138   0.08108   0.20375   Biso      1.000     S          -0.449014 