
##########################################################################
#               Crystallographic Information Format file
#               Produced by PyCifRW module
#
#  This is a CIF file.  CIF has been adopted by the International
#  Union of Crystallography as the standard for data archiving and
#  transmission.
#
#  For information on this file format, follow the CIF links at
#  http://www.iucr.org
##########################################################################

data_image0

_cell_length_a                          10.374
_cell_length_b                          18.443
_cell_length_c                          18.443
_cell_angle_alpha                       90
_cell_angle_beta                        90
_cell_angle_gamma                       90
_symmetry_space_group_name_H-M          'P 1'
_symmetry_int_tables_number             1
loop_
  _symmetry_equiv_pos_as_xyz
         'x, y, z' 
loop_
  _atom_site_label
  _atom_site_occupancy
  _atom_site_fract_x
  _atom_site_fract_y
  _atom_site_fract_z
  _atom_site_thermal_displace_type
  _atom_site_B_iso_or_equiv
  _atom_site_type_symbol
  _atom_site_charge
         C1        1.0000    0.34010   0.12160   0.45500   Biso      1.000     C          0.616004  
         C2        1.0000    0.07180   0.56090   0.52140   Biso      1.000     C          -0.045652           
         C3        1.0000    0.10130   0.99540   0.85300   Biso      1.000     C          0.719707  
         C4        1.0000    0.02780   0.87970   0.10150   Biso      1.000     C          0.73309   
         C5        1.0000    0.15990   0.87840   0.95500   Biso      1.000     C          0.616004  
         C6        1.0000    0.04930   0.99590   0.92990   Biso      1.000     C          -0.05326  
         C7        1.0000    0.02030   0.94250   0.04840   Biso      1.000     C          -0.079833           
         C8        1.0000    0.07180   0.93910   0.97860   Biso      1.000     C          -0.045653           
         C9        1.0000    0.02780   0.39850   0.87970   Biso      1.000     C          0.73309   
         C10       1.0000    0.15990   0.54500   0.87840   Biso      1.000     C          0.616003  
         C11       1.0000    0.04930   0.57010   0.99590   Biso      1.000     C          -0.05326  
         C12       1.0000    0.02030   0.45160   0.94250   Biso      1.000     C          -0.079833           
         C13       1.0000    0.02030   0.55750   0.45160   Biso      1.000     C          -0.079833           
         C14       1.0000    0.07180   0.52140   0.93910   Biso      1.000     C          -0.045653           
         C15       1.0000    0.02780   0.10150   0.62030   Biso      1.000     C          0.73309   
         C16       1.0000    0.15990   0.95500   0.62160   Biso      1.000     C          0.616004  
         C17       1.0000    0.04930   0.92990   0.50410   Biso      1.000     C          -0.05326  
         C18       1.0000    0.02030   0.04840   0.55750   Biso      1.000     C          -0.079833           
         C19       1.0000    0.07180   0.97860   0.56090   Biso      1.000     C          -0.045653           
         C20       1.0000    0.60130   0.50460   0.85300   Biso      1.000     C          0.719707  
         C21       1.0000    0.52780   0.62030   0.10150   Biso      1.000     C          0.73309   
         C22       1.0000    0.65990   0.62160   0.95500   Biso      1.000     C          0.616003  
         C23       1.0000    0.54930   0.50410   0.92990   Biso      1.000     C          -0.05326  
         C24       1.0000    0.52030   0.55750   0.04840   Biso      1.000     C          -0.079833           
         C25       1.0000    0.57180   0.56090   0.97860   Biso      1.000     C          -0.045653           
         C26       1.0000    0.10130   0.85300   0.50460   Biso      1.000     C          0.719707  
         C27       1.0000    0.60130   0.99540   0.64700   Biso      1.000     C          0.719707  
         C28       1.0000    0.04930   0.50410   0.57010   Biso      1.000     C          -0.05326  
         C29       1.0000    0.02780   0.62030   0.39850   Biso      1.000     C          0.73309   
         C30       1.0000    0.39870   0.49540   0.14700   Biso      1.000     C          0.719707  
         C31       1.0000    0.47220   0.37970   0.89850   Biso      1.000     C          0.73309   
         C32       1.0000    0.34010   0.37840   0.04500   Biso      1.000     C          0.616003  
         C33       1.0000    0.45070   0.49590   0.07010   Biso      1.000     C          -0.05326  
         C34       1.0000    0.47970   0.44250   0.95160   Biso      1.000     C          -0.079833           
         C35       1.0000    0.42820   0.43910   0.02140   Biso      1.000     C          -0.045653           
         C36       1.0000    0.39870   0.00460   0.35300   Biso      1.000     C          0.719707  
         C37       1.0000    0.47220   0.12030   0.60150   Biso      1.000     C          0.73309   
         C38       1.0000    0.45070   0.00410   0.42990   Biso      1.000     C          -0.05326  
         C39       1.0000    0.47970   0.05750   0.54840   Biso      1.000     C          -0.079833           
         C40       1.0000    0.42820   0.06090   0.47860   Biso      1.000     C          -0.045653           
         C41       1.0000    0.15990   0.62160   0.54500   Biso      1.000     C          0.616003  
         C42       1.0000    0.39870   0.35300   0.49540   Biso      1.000     C          0.719707  
         C43       1.0000    0.34010   0.45500   0.37840   Biso      1.000     C          0.616004  
         C44       1.0000    0.45070   0.42990   0.49590   Biso      1.000     C          -0.05326  
         C45       1.0000    0.47970   0.54840   0.44250   Biso      1.000     C          -0.079833           
         C46       1.0000    0.42820   0.47860   0.43910   Biso      1.000     C          -0.045653           
         C47       1.0000    0.39870   0.14700   0.00460   Biso      1.000     C          0.719707  
         C48       1.0000    0.47220   0.89850   0.12030   Biso      1.000     C          0.73309   
         C49       1.0000    0.34010   0.04500   0.12160   Biso      1.000     C          0.616004  
         C50       1.0000    0.45070   0.07010   0.00410   Biso      1.000     C          -0.05326  
         C51       1.0000    0.47970   0.95160   0.05750   Biso      1.000     C          -0.079833           
         C52       1.0000    0.42820   0.02140   0.06090   Biso      1.000     C          -0.045653           
         C53       1.0000    0.10130   0.50460   0.64700   Biso      1.000     C          0.719707  
         C54       1.0000    0.47220   0.60150   0.37970   Biso      1.000     C          0.73309   
         C55       1.0000    0.52780   0.87970   0.39850   Biso      1.000     C          0.73309   
         C56       1.0000    0.10130   0.64700   0.99540   Biso      1.000     C          0.719707  
         C57       1.0000    0.54930   0.99590   0.57010   Biso      1.000     C          -0.05326  
         C58       1.0000    0.97220   0.12030   0.89850   Biso      1.000     C          0.73309   
         C59       1.0000    0.84010   0.12160   0.04500   Biso      1.000     C          0.616004  
         C60       1.0000    0.95070   0.00410   0.07010   Biso      1.000     C          -0.05326  
         C61       1.0000    0.97970   0.05750   0.95160   Biso      1.000     C          -0.079833           
         C62       1.0000    0.92820   0.06090   0.02140   Biso      1.000     C          -0.045653           
         C63       1.0000    0.89870   0.35300   0.00460   Biso      1.000     C          0.719707  
         C64       1.0000    0.97220   0.60150   0.12030   Biso      1.000     C          0.73309   
         C65       1.0000    0.84010   0.45500   0.12160   Biso      1.000     C          0.616004  
         C66       1.0000    0.95070   0.42990   0.00410   Biso      1.000     C          -0.05326  
         C67       1.0000    0.92820   0.47860   0.06090   Biso      1.000     C          -0.045653           
         C68       1.0000    0.89870   0.14700   0.49540   Biso      1.000     C          0.719707  
         C69       1.0000    0.97220   0.89850   0.37970   Biso      1.000     C          0.73309   
         C70       1.0000    0.84010   0.04500   0.37840   Biso      1.000     C          0.616003  
         C71       1.0000    0.95070   0.07010   0.49590   Biso      1.000     C          -0.05326  
         C72       1.0000    0.97970   0.95160   0.44250   Biso      1.000     C          -0.079833           
         C73       1.0000    0.92820   0.02140   0.43910   Biso      1.000     C          -0.045653           
         C74       1.0000    0.65990   0.87840   0.54500   Biso      1.000     C          0.616004  
         C75       1.0000    0.89870   0.00460   0.14700   Biso      1.000     C          0.719707  
         C76       1.0000    0.92820   0.43910   0.47860   Biso      1.000     C          -0.045653           
         C77       1.0000    0.97970   0.54840   0.05750   Biso      1.000     C          -0.079833           
         C78       1.0000    0.65990   0.54500   0.62160   Biso      1.000     C          0.616003  
         C79       1.0000    0.52030   0.94250   0.45160   Biso      1.000     C          -0.079833           
         C80       1.0000    0.57180   0.93910   0.52140   Biso      1.000     C          -0.045653           
         C81       1.0000    0.60130   0.64700   0.50460   Biso      1.000     C          0.719707  
         C82       1.0000    0.52780   0.39850   0.62030   Biso      1.000     C          0.73309   
         C83       1.0000    0.54930   0.57010   0.50410   Biso      1.000     C          -0.05326  
         C84       1.0000    0.52030   0.45160   0.55750   Biso      1.000     C          -0.079833           
         C85       1.0000    0.57180   0.52140   0.56090   Biso      1.000     C          -0.045653           
         C86       1.0000    0.60130   0.85300   0.99540   Biso      1.000     C          0.719707  
         C87       1.0000    0.97970   0.44250   0.54840   Biso      1.000     C          -0.079833           
         C88       1.0000    0.65990   0.95500   0.87840   Biso      1.000     C          0.616003  
         C89       1.0000    0.54930   0.92990   0.99590   Biso      1.000     C          -0.05326  
         C90       1.0000    0.52030   0.04840   0.94250   Biso      1.000     C          -0.079833           
         C91       1.0000    0.57180   0.97860   0.93910   Biso      1.000     C          -0.045653           
         C92       1.0000    0.89870   0.49540   0.35300   Biso      1.000     C          0.719707  
         C93       1.0000    0.97220   0.37970   0.60150   Biso      1.000     C          0.73309   
         C94       1.0000    0.84010   0.37840   0.45500   Biso      1.000     C          0.616003  
         C95       1.0000    0.95070   0.49590   0.42990   Biso      1.000     C          -0.05326  
         C96       1.0000    0.52780   0.10150   0.87970   Biso      1.000     C          0.73309   
         O1        1.0000    0.21380   0.65700   0.01750   Biso      1.000     O          -0.710333           
         O2        1.0000    0.98020   0.41720   0.82039   Biso      1.000     O          -0.736426           
         O3        1.0000    0.02580   0.69659   0.97560   Biso      1.000     O          -0.723588           
         O4        1.0000    0.07320   0.33701   0.88995   Biso      1.000     O          -0.679755           
         O5        1.0000    0.71380   0.01750   0.65700   Biso      1.000     O          -0.710333           
         O6        1.0000    0.21550   0.84400   0.00560   Biso      1.000     O          -0.773277           
         O7        1.0000    0.07320   0.88995   0.16299   Biso      1.000     O          -0.679756           
         O8        1.0000    0.98020   0.82039   0.08280   Biso      1.000     O          -0.736426           
         O9        1.0000    0.21550   0.49440   0.84400   Biso      1.000     O          -0.773277           
         O10       1.0000    0.02580   0.97560   0.80341   Biso      1.000     O          -0.723588           
         O11       1.0000    0.17640   0.86650   0.88900   Biso      1.000     O          -0.514797           
         O12       1.0000    0.17640   0.61100   0.86650   Biso      1.000     O          -0.514797           
         O13       1.0000    0.48020   0.67961   0.08280   Biso      1.000     O          -0.736426           
         O14       1.0000    0.02580   0.80341   0.52440   Biso      1.000     O          -0.723588           
         O15       1.0000    0.98020   0.08280   0.67961   Biso      1.000     O          -0.736426           
         O16       1.0000    0.07320   0.16299   0.61005   Biso      1.000     O          -0.679756           
         O17       1.0000    0.21550   0.00560   0.65600   Biso      1.000     O          -0.773277           
         O18       1.0000    0.17640   0.88900   0.63350   Biso      1.000     O          -0.514798           
         O19       1.0000    0.71380   0.48250   0.84300   Biso      1.000     O          -0.710333           
         O20       1.0000    0.52580   0.52440   0.80341   Biso      1.000     O          -0.723588           
         O21       1.0000    0.57320   0.61005   0.16299   Biso      1.000     O          -0.679756           
         O22       1.0000    0.71550   0.65600   0.00560   Biso      1.000     O          -0.773277           
         O23       1.0000    0.67640   0.63350   0.88900   Biso      1.000     O          -0.514797           
         O24       1.0000    0.21380   0.01750   0.84300   Biso      1.000     O          -0.710333           
         O25       1.0000    0.21380   0.84300   0.48250   Biso      1.000     O          -0.710333           
         O26       1.0000    0.17640   0.63350   0.61100   Biso      1.000     O          -0.514797           
         O27       1.0000    0.32360   0.38900   0.36650   Biso      1.000     O          -0.514797           
         O28       1.0000    0.07320   0.61005   0.33701   Biso      1.000     O          -0.679756           
         O29       1.0000    0.52580   0.97560   0.69659   Biso      1.000     O          -0.723588           
         O30       1.0000    0.28450   0.50560   0.34400   Biso      1.000     O          -0.773277           
         O31       1.0000    0.42680   0.66299   0.38995   Biso      1.000     O          -0.679756           
         O32       1.0000    0.51980   0.58280   0.32039   Biso      1.000     O          -0.736426           
         O33       1.0000    0.47420   0.30341   0.47560   Biso      1.000     O          -0.723588           
         O34       1.0000    0.28620   0.34300   0.51750   Biso      1.000     O          -0.710333           
         O35       1.0000    0.32360   0.13350   0.38900   Biso      1.000     O          -0.514798           
         O36       1.0000    0.28450   0.15600   0.50560   Biso      1.000     O          -0.773277           
         O37       1.0000    0.42680   0.11005   0.66299   Biso      1.000     O          -0.679756           
         O38       1.0000    0.51980   0.17961   0.58280   Biso      1.000     O          -0.736426           
         O39       1.0000    0.47420   0.02440   0.30341   Biso      1.000     O          -0.723588           
         O40       1.0000    0.28620   0.98250   0.34300   Biso      1.000     O          -0.710333           
         O41       1.0000    0.32360   0.36650   0.11100   Biso      1.000     O          -0.514797           
         O42       1.0000    0.28450   0.34400   0.99440   Biso      1.000     O          -0.773277           
         O43       1.0000    0.42680   0.38995   0.83701   Biso      1.000     O          -0.679756           
         O44       1.0000    0.51980   0.32039   0.91720   Biso      1.000     O          -0.736426           
         O45       1.0000    0.28620   0.15700   0.98250   Biso      1.000     O          -0.710333           
         O46       1.0000    0.47420   0.19659   0.02440   Biso      1.000     O          -0.723588           
         O47       1.0000    0.51980   0.91720   0.17961   Biso      1.000     O          -0.736426           
         O48       1.0000    0.42680   0.83701   0.11005   Biso      1.000     O          -0.679756           
         O49       1.0000    0.28450   0.99440   0.15600   Biso      1.000     O          -0.773277           
         O50       1.0000    0.32360   0.11100   0.13350   Biso      1.000     O          -0.514797           
         O51       1.0000    0.21380   0.48250   0.65700   Biso      1.000     O          -0.710333           
         O52       1.0000    0.02580   0.52440   0.69659   Biso      1.000     O          -0.723588           
         O53       1.0000    0.98020   0.67961   0.41720   Biso      1.000     O          -0.736426           
         O54       1.0000    0.21550   0.65600   0.49440   Biso      1.000     O          -0.773277           
         O55       1.0000    0.48020   0.82039   0.41720   Biso      1.000     O          -0.736426           
         O56       1.0000    0.28620   0.51750   0.15700   Biso      1.000     O          -0.710333           
         O57       1.0000    0.71550   0.84400   0.49440   Biso      1.000     O          -0.773277           
         O58       1.0000    0.01980   0.17961   0.91720   Biso      1.000     O          -0.736426           
         O59       1.0000    0.92680   0.11005   0.83701   Biso      1.000     O          -0.679755           
         O60       1.0000    0.78450   0.15600   0.99440   Biso      1.000     O          -0.773277           
         O61       1.0000    0.82360   0.13350   0.11100   Biso      1.000     O          -0.514797           
         O62       1.0000    0.78620   0.34300   0.98250   Biso      1.000     O          -0.710333           
         O63       1.0000    0.57320   0.88995   0.33701   Biso      1.000     O          -0.679756           
         O64       1.0000    0.01980   0.58280   0.17961   Biso      1.000     O          -0.736426           
         O65       1.0000    0.92680   0.66299   0.11005   Biso      1.000     O          -0.679756           
         O66       1.0000    0.78450   0.50560   0.15600   Biso      1.000     O          -0.773277           
         O67       1.0000    0.82360   0.38900   0.13350   Biso      1.000     O          -0.514797           
         O68       1.0000    0.78620   0.15700   0.51750   Biso      1.000     O          -0.710333           
         O69       1.0000    0.97420   0.19659   0.47560   Biso      1.000     O          -0.723588           
         O70       1.0000    0.01980   0.91720   0.32039   Biso      1.000     O          -0.736426           
         O71       1.0000    0.92680   0.83701   0.38995   Biso      1.000     O          -0.679756           
         O72       1.0000    0.78450   0.99440   0.34400   Biso      1.000     O          -0.773277           
         O73       1.0000    0.82360   0.11100   0.36650   Biso      1.000     O          -0.514797           
         O74       1.0000    0.47420   0.47560   0.19659   Biso      1.000     O          -0.723588           
         O75       1.0000    0.97420   0.02440   0.19659   Biso      1.000     O          -0.723588           
         O76       1.0000    0.78620   0.98250   0.15700   Biso      1.000     O          -0.710333           
         O77       1.0000    0.97420   0.30341   0.02440   Biso      1.000     O          -0.723588           
         O78       1.0000    0.78450   0.34400   0.50560   Biso      1.000     O          -0.773277           
         O79       1.0000    0.82360   0.36650   0.38900   Biso      1.000     O          -0.514797           
         O80       1.0000    0.71380   0.65700   0.48250   Biso      1.000     O          -0.710333           
         O81       1.0000    0.52580   0.69659   0.52440   Biso      1.000     O          -0.723588           
         O82       1.0000    0.48020   0.41720   0.67961   Biso      1.000     O          -0.736426           
         O83       1.0000    0.57320   0.33701   0.61005   Biso      1.000     O          -0.679756           
         O84       1.0000    0.71550   0.49440   0.65600   Biso      1.000     O          -0.773277           
         O85       1.0000    0.67640   0.61100   0.63350   Biso      1.000     O          -0.514797           
         O86       1.0000    0.71380   0.84300   0.01750   Biso      1.000     O          -0.710333           
         O87       1.0000    0.67640   0.86650   0.61100   Biso      1.000     O          -0.514797           
         O88       1.0000    0.48020   0.08280   0.82039   Biso      1.000     O          -0.736426           
         O89       1.0000    0.57320   0.16299   0.88995   Biso      1.000     O          -0.679756           
         O90       1.0000    0.71550   0.00560   0.84400   Biso      1.000     O          -0.773277           
         O91       1.0000    0.67640   0.88900   0.86650   Biso      1.000     O          -0.514797           
         O92       1.0000    0.78620   0.51750   0.34300   Biso      1.000     O          -0.710333           
         O93       1.0000    0.97420   0.47560   0.30341   Biso      1.000     O          -0.723588           
         O94       1.0000    0.01980   0.32039   0.58280   Biso      1.000     O          -0.736426           
         O95       1.0000    0.92680   0.38995   0.66299   Biso      1.000     O          -0.679756           
         O96       1.0000    0.52580   0.80341   0.97560   Biso      1.000     O          -0.723588           
         Tm1       1.0000    0.65225   0.52632   0.24543   Biso      1.000     Tm          2.248122  
         Tm2       1.0000    0.65225   0.24543   0.97368   Biso      1.000     Tm          2.248122  
         Tm3       1.0000    0.65225   0.25457   0.52632   Biso      1.000     Tm          2.248122  
         Tm4       1.0000    0.84775   0.02632   0.75457   Biso      1.000     Tm          2.248122  
         Tm5       1.0000    0.84775   0.47368   0.74543   Biso      1.000     Tm          2.248122  
         Tm6       1.0000    0.84775   0.75457   0.47368   Biso      1.000     Tm          2.248122  
         Tm7       1.0000    0.84775   0.74543   0.02632   Biso      1.000     Tm          2.248122  
         Tm8       1.0000    0.34775   0.74543   0.47368   Biso      1.000     Tm          2.248122  
         Tm9       1.0000    0.34775   0.47368   0.75457   Biso      1.000     Tm          2.248122  
         Tm10      1.0000    0.34775   0.75457   0.02632   Biso      1.000     Tm          2.248123  
         Tm11      1.0000    0.15225   0.97368   0.24543   Biso      1.000     Tm          2.248122  
         Tm12      1.0000    0.15225   0.52632   0.25457   Biso      1.000     Tm          2.248123  
         Tm13      1.0000    0.15225   0.24543   0.52632   Biso      1.000     Tm          2.248123  
         Tm14      1.0000    0.15225   0.25457   0.97368   Biso      1.000     Tm          2.248122  
         Tm15      1.0000    0.34775   0.02632   0.74543   Biso      1.000     Tm          2.248123  
         Tm16      1.0000    0.65225   0.97368   0.25457   Biso      1.000     Tm          2.248122 