
##########################################################################
#               Crystallographic Information Format file
#               Produced by PyCifRW module
#
#  This is a CIF file.  CIF has been adopted by the International
#  Union of Crystallography as the standard for data archiving and
#  transmission.
#
#  For information on this file format, follow the CIF links at
#  http://www.iucr.org
##########################################################################

data_image0

_cell_length_a                          14.1341
_cell_length_b                          14.1341
_cell_length_c                          14.1341
_cell_angle_alpha                       90
_cell_angle_beta                        90
_cell_angle_gamma                       90
_symmetry_space_group_name_H-M          'P 1'
_symmetry_int_tables_number             1
loop_
  _symmetry_equiv_pos_as_xyz
         'x, y, z' 
loop_
  _atom_site_label
  _atom_site_occupancy
  _atom_site_fract_x
  _atom_site_fract_y
  _atom_site_fract_z
  _atom_site_thermal_displace_type
  _atom_site_B_iso_or_equiv
  _atom_site_type_symbol
  _atom_site_charge
         C1        1.0000    0.33600   0.42680   0.59010   Biso      1.000     C          0.604477  
         C2        1.0000    0.92680   0.90990   0.66400   Biso      1.000     C          0.604477  
         C3        1.0000    0.87960   0.87100   0.75360   Biso      1.000     C          -0.0613   
         C4        1.0000    0.79960   0.91510   0.79140   Biso      1.000     C          0.029218  
         C5        1.0000    0.42680   0.59010   0.33600   Biso      1.000     C          0.604477  
         C6        1.0000    0.37960   0.62900   0.24640   Biso      1.000     C          -0.0613   
         C7        1.0000    0.29960   0.58490   0.20860   Biso      1.000     C          0.029218  
         C8        1.0000    0.16400   0.57320   0.09010   Biso      1.000     C          0.604477  
         C9        1.0000    0.20040   0.41510   0.70860   Biso      1.000     C          0.029218  
         C10       1.0000    0.25360   0.62040   0.12900   Biso      1.000     C          -0.0613   
         C11       1.0000    0.74640   0.12040   0.37100   Biso      1.000     C          -0.0613   
         C12       1.0000    0.70860   0.20040   0.41510   Biso      1.000     C          0.029218  
         C13       1.0000    0.66400   0.92680   0.90990   Biso      1.000     C          0.604477  
         C14       1.0000    0.75360   0.87960   0.87100   Biso      1.000     C          -0.0613   
         C15       1.0000    0.79140   0.79960   0.91510   Biso      1.000     C          0.029218  
         C16       1.0000    0.24640   0.37960   0.62900   Biso      1.000     C          -0.0613   
         C17       1.0000    0.20860   0.29960   0.58490   Biso      1.000     C          0.029218  
         C18       1.0000    0.83600   0.07320   0.40990   Biso      1.000     C          0.604477  
         C19       1.0000    0.12040   0.37100   0.74640   Biso      1.000     C          -0.0613   
         C20       1.0000    0.29140   0.70040   0.08490   Biso      1.000     C          0.029218  
         C21       1.0000    0.70040   0.08490   0.29140   Biso      1.000     C          0.029218  
         C22       1.0000    0.07320   0.40990   0.83600   Biso      1.000     C          0.604477  
         C23       1.0000    0.09010   0.16400   0.57320   Biso      1.000     C          0.604477  
         C24       1.0000    0.12900   0.25360   0.62040   Biso      1.000     C          -0.0613   
         C25       1.0000    0.08490   0.29140   0.70040   Biso      1.000     C          0.029218  
         C26       1.0000    0.40990   0.83600   0.07320   Biso      1.000     C          0.604477  
         C27       1.0000    0.41510   0.70860   0.20040   Biso      1.000     C          0.029218  
         C28       1.0000    0.90990   0.66400   0.92680   Biso      1.000     C          0.604477  
         C29       1.0000    0.37100   0.74640   0.12040   Biso      1.000     C          -0.0613   
         C30       1.0000    0.91510   0.79140   0.79960   Biso      1.000     C          0.029218  
         C31       1.0000    0.59010   0.33600   0.42680   Biso      1.000     C          0.604477  
         C32       1.0000    0.62900   0.24640   0.37960   Biso      1.000     C          -0.0613   
         C33       1.0000    0.58490   0.20860   0.29960   Biso      1.000     C          0.029218  
         C34       1.0000    0.57320   0.09010   0.16400   Biso      1.000     C          0.604477  
         C35       1.0000    0.62040   0.12900   0.25360   Biso      1.000     C          -0.0613   
         C36       1.0000    0.87100   0.75360   0.87960   Biso      1.000     C          -0.0613   
         I1        1.0000    0.27491   0.24869   0.46194   Biso      1.000     I          0.013737000000000001          
         I2        1.0000    0.25131   0.53806   0.77491   Biso      1.000     I          0.013737000000000001          
         I3        1.0000    0.72509   0.74869   0.03806   Biso      1.000     I          0.013737000000000001          
         I4        1.0000    0.77491   0.25131   0.53806   Biso      1.000     I          0.013737000000000001          
         I5        1.0000    0.22509   0.75131   0.96194   Biso      1.000     I          0.013737000000000001          
         I6        1.0000    0.24869   0.46194   0.27491   Biso      1.000     I          0.013738  
         I7        1.0000    0.74869   0.03806   0.72509   Biso      1.000     I          0.013737000000000001          
         I8        1.0000    0.75131   0.96194   0.22509   Biso      1.000     I          0.013737000000000001          
         I9        1.0000    0.96194   0.22509   0.75131   Biso      1.000     I          0.013738  
         I10       1.0000    0.03806   0.72509   0.74869   Biso      1.000     I          0.013738  
         I11       1.0000    0.53806   0.77491   0.25131   Biso      1.000     I          0.013738  
         I12       1.0000    0.46194   0.27491   0.24869   Biso      1.000     I          0.013738  
         O1        1.0000    0.58834   0.91390   0.86740   Biso      1.000     O          -0.634415           
         O2        1.0000    0.67185   0.97440   0.98370   Biso      1.000     O          -0.621364           
         O3        1.0000    0.82815   0.02560   0.48370   Biso      1.000     O          -0.621364           
         O4        1.0000    0.91166   0.08610   0.36740   Biso      1.000     O          -0.634415           
         O5        1.0000    0.02560   0.48370   0.82815   Biso      1.000     O          -0.621364           
         O6        1.0000    0.08834   0.58610   0.13260   Biso      1.000     O          -0.634415           
         O7        1.0000    0.17185   0.52560   0.01630   Biso      1.000     O          -0.621364           
         O8        1.0000    0.41390   0.63260   0.41166   Biso      1.000     O          -0.634415           
         O9        1.0000    0.47440   0.51630   0.32815   Biso      1.000     O          -0.621364           
         O10       1.0000    0.91390   0.86740   0.58834   Biso      1.000     O          -0.634415           
         O11       1.0000    0.97440   0.98370   0.67185   Biso      1.000     O          -0.621364           
         O12       1.0000    0.08610   0.36740   0.91166   Biso      1.000     O          -0.634415           
         O13       1.0000    0.58610   0.13260   0.08834   Biso      1.000     O          -0.634415           
         O14       1.0000    0.41166   0.41390   0.63260   Biso      1.000     O          -0.634415           
         O15       1.0000    0.63260   0.41166   0.41390   Biso      1.000     O          -0.634415           
         O16       1.0000    0.51630   0.32815   0.47440   Biso      1.000     O          -0.621364           
         O17       1.0000    0.86740   0.58834   0.91390   Biso      1.000     O          -0.634415           
         O18       1.0000    0.98370   0.67185   0.97440   Biso      1.000     O          -0.621364           
         O19       1.0000    0.36740   0.91166   0.08610   Biso      1.000     O          -0.634415           
         O20       1.0000    0.48370   0.82815   0.02560   Biso      1.000     O          -0.621364           
         O21       1.0000    0.13260   0.08834   0.58610   Biso      1.000     O          -0.634414           
         O22       1.0000    0.01630   0.17185   0.52560   Biso      1.000     O          -0.621364           
         O23       1.0000    0.32815   0.47440   0.51630   Biso      1.000     O          -0.621364           
         O24       1.0000    0.52560   0.01630   0.17185   Biso      1.000     O          -0.621364           
         Sm1       1.0000    0.50049   0.50049   0.50049   Biso      1.000     Sm          2.00894   
         Sm2       1.0000    0.99951   0.49951   0.00049   Biso      1.000     Sm          2.00894   
         Sm3       1.0000    0.49951   0.00049   0.99951   Biso      1.000     Sm          2.00894   
         Sm4       1.0000    0.00049   0.99951   0.49951   Biso      1.000     Sm          2.00894 