
##########################################################################
#               Crystallographic Information Format file
#               Produced by PyCifRW module
#
#  This is a CIF file.  CIF has been adopted by the International
#  Union of Crystallography as the standard for data archiving and
#  transmission.
#
#  For information on this file format, follow the CIF links at
#  http://www.iucr.org
##########################################################################

data_image0

_cell_length_a                          13.0366
_cell_length_b                          13.0366
_cell_length_c                          16.24
_cell_angle_alpha                       109.539
_cell_angle_beta                        109.539
_cell_angle_gamma                       95.4748
_symmetry_space_group_name_H-M          'P 1'
_symmetry_int_tables_number             1
loop_
  _symmetry_equiv_pos_as_xyz
         'x, y, z' 
loop_
  _atom_site_label
  _atom_site_occupancy
  _atom_site_fract_x
  _atom_site_fract_y
  _atom_site_fract_z
  _atom_site_thermal_displace_type
  _atom_site_B_iso_or_equiv
  _atom_site_type_symbol
  _atom_site_charge
         C1        1.0000    0.83808   0.22664   0.49462   Biso      1.000     C          0.153759  
         C2        1.0000    0.79791   0.27511   0.16365   Biso      1.000     C          0.029234  
         C3        1.0000    0.62284   0.22014   0.04733   Biso      1.000     C          0.035068  
         C4        1.0000    0.89933   0.18479   0.56973   Biso      1.000     C          -0.279163           
         C5        1.0000    0.95046   0.08956   0.53367   Biso      1.000     C          -0.054528           
         C6        1.0000    0.05363   0.10797   0.52748   Biso      1.000     C          0.108728  
         C7        1.0000    0.10164   0.02140   0.49574   Biso      1.000     C          0.110143  
         C8        1.0000    0.66100   0.16280   0.97976   Biso      1.000     C          -0.233116           
         C9        1.0000    0.48600   0.51560   0.13350   Biso      1.000     C          0.051744  
         C10       1.0000    0.40040   0.54800   0.07720   Biso      1.000     C          -0.202062           
         C11       1.0000    0.28700   0.36960   0.02500   Biso      1.000     C          -0.215579           
         C12       1.0000    0.29773   0.47381   0.02218   Biso      1.000     C          0.158629  
         C13       1.0000    0.20278   0.50516   0.95789   Biso      1.000     C          -0.252131           
         C14       1.0000    0.09877   0.50047   0.97994   Biso      1.000     C          -0.064988           
         C15       1.0000    0.09251   0.58425   0.05602   Biso      1.000     C          0.113719  
         C16       1.0000    0.37750   0.34270   0.08260   Biso      1.000     C          0.046357  
         C17       1.0000    0.99708   0.58516   0.07547   Biso      1.000     C          0.11307   
         C18       1.0000    0.84262   0.21970   0.10023   Biso      1.000     C          -0.223943           
         C19       1.0000    0.81521   0.10067   0.93027   Biso      1.000     C          -0.279161           
         C20       1.0000    0.72489   0.20209   0.33635   Biso      1.000     C          0.029233  
         C21       1.0000    0.77986   0.37716   0.45267   Biso      1.000     C          0.035063  
         C22       1.0000    0.41484   0.00292   0.42453   Biso      1.000     C          0.113068  
         C23       1.0000    0.41575   0.90749   0.44398   Biso      1.000     C          0.113721  
         C24       1.0000    0.49953   0.90123   0.52006   Biso      1.000     C          -0.064986           
         C25       1.0000    0.49484   0.79722   0.54211   Biso      1.000     C          -0.252133           
         C26       1.0000    0.77336   0.16192   0.00538   Biso      1.000     C          0.153759  
         C27       1.0000    0.52619   0.70227   0.47782   Biso      1.000     C          0.158619  
         C28       1.0000    0.45200   0.59960   0.42280   Biso      1.000     C          -0.202062           
         C29       1.0000    0.65730   0.62250   0.41740   Biso      1.000     C          0.046351  
         C30       1.0000    0.48440   0.51400   0.36650   Biso      1.000     C          0.051741  
         C31       1.0000    0.97860   0.89836   0.00426   Biso      1.000     C          0.110138  
         C32       1.0000    0.89203   0.94637   0.97252   Biso      1.000     C          0.108731  
         C33       1.0000    0.91044   0.04954   0.96633   Biso      1.000     C          -0.054527           
         C34       1.0000    0.63040   0.71300   0.47500   Biso      1.000     C          -0.215575           
         C35       1.0000    0.37716   0.77986   0.95267   Biso      1.000     C          0.035067  
         C36       1.0000    0.20209   0.72489   0.83635   Biso      1.000     C          0.029238  
         C37       1.0000    0.33900   0.83720   0.02024   Biso      1.000     C          -0.233108           
         C38       1.0000    0.16192   0.77336   0.50538   Biso      1.000     C          0.153759  
         C39       1.0000    0.10067   0.81521   0.43027   Biso      1.000     C          -0.279163           
         C40       1.0000    0.04954   0.91044   0.46633   Biso      1.000     C          -0.054526           
         C41       1.0000    0.94637   0.89203   0.47252   Biso      1.000     C          0.108727  
         C42       1.0000    0.89836   0.97860   0.50426   Biso      1.000     C          0.110145  
         C43       1.0000    0.51400   0.48440   0.86650   Biso      1.000     C          0.051741  
         C44       1.0000    0.21970   0.84262   0.60023   Biso      1.000     C          -0.223947           
         C45       1.0000    0.62250   0.65730   0.91740   Biso      1.000     C          0.046351  
         C46       1.0000    0.71300   0.63040   0.97500   Biso      1.000     C          -0.215578           
         C47       1.0000    0.70227   0.52619   0.97782   Biso      1.000     C          0.158622  
         C48       1.0000    0.79722   0.49484   0.04211   Biso      1.000     C          -0.252135           
         C49       1.0000    0.90123   0.49953   0.02006   Biso      1.000     C          -0.064988           
         C50       1.0000    0.90749   0.41575   0.94398   Biso      1.000     C          0.11372   
         C51       1.0000    0.00292   0.41484   0.92453   Biso      1.000     C          0.11307   
         C52       1.0000    0.59960   0.45200   0.92280   Biso      1.000     C          -0.202061           
         C53       1.0000    0.16280   0.66100   0.47976   Biso      1.000     C          -0.233116           
         C54       1.0000    0.27511   0.79791   0.66365   Biso      1.000     C          0.029236  
         C55       1.0000    0.22014   0.62284   0.54733   Biso      1.000     C          0.035066  
         C56       1.0000    0.15738   0.78030   0.89977   Biso      1.000     C          -0.223941           
         C57       1.0000    0.22664   0.83808   0.99462   Biso      1.000     C          0.153753  
         C58       1.0000    0.18479   0.89933   0.06973   Biso      1.000     C          -0.279157           
         C59       1.0000    0.08956   0.95046   0.03367   Biso      1.000     C          -0.054528           
         C60       1.0000    0.10797   0.05363   0.02748   Biso      1.000     C          0.108729  
         C61       1.0000    0.02140   0.10164   0.99574   Biso      1.000     C          0.110144  
         C62       1.0000    0.51560   0.48600   0.63350   Biso      1.000     C          0.051747  
         C63       1.0000    0.34270   0.37750   0.58260   Biso      1.000     C          0.046355  
         C64       1.0000    0.54800   0.40040   0.57720   Biso      1.000     C          -0.202063           
         C65       1.0000    0.36960   0.28700   0.52500   Biso      1.000     C          -0.215576           
         C66       1.0000    0.47381   0.29773   0.52218   Biso      1.000     C          0.158628  
         C67       1.0000    0.50516   0.20278   0.45789   Biso      1.000     C          -0.252133           
         C68       1.0000    0.50047   0.09877   0.47994   Biso      1.000     C          -0.064987           
         C69       1.0000    0.58425   0.09251   0.55602   Biso      1.000     C          0.11372   
         C70       1.0000    0.58516   0.99708   0.57547   Biso      1.000     C          0.11307   
         C71       1.0000    0.83720   0.33900   0.52024   Biso      1.000     C          -0.233117           
         C72       1.0000    0.78030   0.15738   0.39977   Biso      1.000     C          -0.223946           
         Cd1       1.0000    0.62115   0.37885   0.25000   Biso      1.000     Cd          0.478926  
         Cd2       1.0000    0.37885   0.62115   0.75000   Biso      1.000     Cd          0.478923  
         F1        1.0000    0.81667   0.33061   0.88616   Biso      1.000     F          -0.106381           
         F2        1.0000    0.78621   0.89091   0.94602   Biso      1.000     F          -0.115482           
         F3        1.0000    0.95403   0.79687   0.00722   Biso      1.000     F          -0.116396           
         F4        1.0000    0.33061   0.81667   0.38616   Biso      1.000     F          -0.106382           
         F5        1.0000    0.32894   0.00142   0.34966   Biso      1.000     F          -0.115496           
         F6        1.0000    0.10909   0.21379   0.55398   Biso      1.000     F          -0.115484           
         F7        1.0000    0.20313   0.04597   0.49278   Biso      1.000     F          -0.116397           
         F8        1.0000    0.00142   0.32894   0.84966   Biso      1.000     F          -0.115495           
         F9        1.0000    0.99858   0.67106   0.15034   Biso      1.000     F          -0.115496           
         F10       1.0000    0.21379   0.10909   0.05398   Biso      1.000     F          -0.115483           
         F11       1.0000    0.04597   0.20313   0.99278   Biso      1.000     F          -0.116396           
         F12       1.0000    0.66939   0.18333   0.61384   Biso      1.000     F          -0.106382           
         F13       1.0000    0.67106   0.99858   0.65034   Biso      1.000     F          -0.115495           
         F14       1.0000    0.89091   0.78621   0.44602   Biso      1.000     F          -0.115483           
         F15       1.0000    0.79687   0.95403   0.50722   Biso      1.000     F          -0.116396           
         F16       1.0000    0.18333   0.66939   0.11384   Biso      1.000     F          -0.106382           
         H1        1.0000    0.36790   0.26990   0.08340   Biso      1.000     H          0.069436  
         H2        1.0000    0.55560   0.56860   0.17210   Biso      1.000     H          0.076496  
         H3        1.0000    0.41540   0.76840   0.53430   Biso      1.000     H          0.124376  
         H4        1.0000    0.84110   0.15430   0.90850   Biso      1.000     H          0.133955  
         H5        1.0000    0.75550   0.04250   0.87780   Biso      1.000     H          0.137969  
         H6        1.0000    0.91860   0.22260   0.12200   Biso      1.000     H          0.121207  
         H7        1.0000    0.54450   0.21730   0.02900   Biso      1.000     H          0.073414  
         H8        1.0000    0.84300   0.31280   0.22280   Biso      1.000     H          0.085175  
         H9        1.0000    0.68440   0.78200   0.51230   Biso      1.000     H          0.119071  
         H10       1.0000    0.37940   0.58760   0.42340   Biso      1.000     H          0.122315  
         H11       1.0000    0.73010   0.63210   0.41660   Biso      1.000     H          0.069437  
         H12       1.0000    0.43140   0.44440   0.32790   Biso      1.000     H          0.076495  
         H13       1.0000    0.41240   0.62060   0.07660   Biso      1.000     H          0.122315  
         H14       1.0000    0.61260   0.12400   0.92000   Biso      1.000     H          0.129055  
         H15       1.0000    0.21800   0.31560   0.98770   Biso      1.000     H          0.119071  
         H16       1.0000    0.81590   0.54410   0.10900   Biso      1.000     H          0.123788  
         H17       1.0000    0.68720   0.15700   0.27720   Biso      1.000     H          0.085176  
         H18       1.0000    0.76840   0.41540   0.03430   Biso      1.000     H          0.124376  
         H19       1.0000    0.15430   0.84110   0.40850   Biso      1.000     H          0.133955  
         H20       1.0000    0.04250   0.75550   0.37780   Biso      1.000     H          0.137969  
         H21       1.0000    0.22260   0.91860   0.62200   Biso      1.000     H          0.121208  
         H22       1.0000    0.12400   0.61260   0.42000   Biso      1.000     H          0.129056  
         H23       1.0000    0.31280   0.84300   0.72280   Biso      1.000     H          0.085176  
         H24       1.0000    0.21730   0.54450   0.52900   Biso      1.000     H          0.073415  
         H25       1.0000    0.78200   0.68440   0.01230   Biso      1.000     H          0.11907   
         H26       1.0000    0.58760   0.37940   0.92340   Biso      1.000     H          0.122316  
         H27       1.0000    0.63210   0.73010   0.91660   Biso      1.000     H          0.069438  
         H28       1.0000    0.44440   0.43140   0.82790   Biso      1.000     H          0.076496  
         H29       1.0000    0.45590   0.18410   0.39100   Biso      1.000     H          0.123788  
         H30       1.0000    0.58460   0.23160   0.46570   Biso      1.000     H          0.124376  
         H31       1.0000    0.15890   0.84570   0.09150   Biso      1.000     H          0.133955  
         H32       1.0000    0.78270   0.45550   0.47100   Biso      1.000     H          0.073415  
         H33       1.0000    0.54410   0.81590   0.60900   Biso      1.000     H          0.123788  
         H34       1.0000    0.31560   0.21800   0.48770   Biso      1.000     H          0.119071  
         H35       1.0000    0.87600   0.38740   0.58000   Biso      1.000     H          0.129056  
         H36       1.0000    0.24450   0.95750   0.12220   Biso      1.000     H          0.137967  
         H37       1.0000    0.77740   0.08140   0.37800   Biso      1.000     H          0.121209  
         H38       1.0000    0.95750   0.24450   0.62220   Biso      1.000     H          0.137968  
         H39       1.0000    0.84570   0.15890   0.59150   Biso      1.000     H          0.133955  
         H40       1.0000    0.23160   0.58460   0.96570   Biso      1.000     H          0.124375  
         H41       1.0000    0.08140   0.77740   0.87800   Biso      1.000     H          0.121206  
         H42       1.0000    0.38740   0.87600   0.08000   Biso      1.000     H          0.129054  
         H43       1.0000    0.15700   0.68720   0.77720   Biso      1.000     H          0.085174  
         H44       1.0000    0.45550   0.78270   0.97100   Biso      1.000     H          0.073414  
         H45       1.0000    0.18410   0.45590   0.89100   Biso      1.000     H          0.123788  
         H46       1.0000    0.62060   0.41240   0.57660   Biso      1.000     H          0.122316  
         H47       1.0000    0.26990   0.36790   0.58340   Biso      1.000     H          0.069437  
         H48       1.0000    0.56860   0.55560   0.67210   Biso      1.000     H          0.076498  
         N1        1.0000    0.58616   0.52406   0.36378   Biso      1.000     N          -0.240077           
         N2        1.0000    0.52406   0.58616   0.86378   Biso      1.000     N          -0.24008  
         N3        1.0000    0.27696   0.68972   0.63901   Biso      1.000     N          -0.256817           
         N4        1.0000    0.41384   0.47594   0.63622   Biso      1.000     N          -0.24008  
         N5        1.0000    0.31028   0.72304   0.86099   Biso      1.000     N          -0.256825           
         N6        1.0000    0.72304   0.31028   0.36099   Biso      1.000     N          -0.256818           
         N7        1.0000    0.68972   0.27696   0.13901   Biso      1.000     N          -0.25682  
         N8        1.0000    0.47594   0.41384   0.13622   Biso      1.000     N          -0.240079 