
##########################################################################
#               Crystallographic Information Format file
#               Produced by PyCifRW module
#
#  This is a CIF file.  CIF has been adopted by the International
#  Union of Crystallography as the standard for data archiving and
#  transmission.
#
#  For information on this file format, follow the CIF links at
#  http://www.iucr.org
##########################################################################

data_image0

_cell_length_a                          13.1523
_cell_length_b                          13.1523
_cell_length_c                          16.5765
_cell_angle_alpha                       111.191
_cell_angle_beta                        111.191
_cell_angle_gamma                       94.1804
_symmetry_space_group_name_H-M          'P 1'
_symmetry_int_tables_number             1
loop_
  _symmetry_equiv_pos_as_xyz
         'x, y, z' 
loop_
  _atom_site_label
  _atom_site_occupancy
  _atom_site_fract_x
  _atom_site_fract_y
  _atom_site_fract_z
  _atom_site_thermal_displace_type
  _atom_site_B_iso_or_equiv
  _atom_site_type_symbol
  _atom_site_charge
         C1        1.0000    0.33563   0.72589   0.49501   Biso      1.000     C          0.154397  
         C2        1.0000    0.12436   0.72118   0.04636   Biso      1.000     C          0.043055  
         C3        1.0000    0.30149   0.77903   0.16415   Biso      1.000     C          0.053132000000000006          
         C4        1.0000    0.39856   0.68500   0.56958   Biso      1.000     C          -0.263271           
         C5        1.0000    0.45034   0.58996   0.53359   Biso      1.000     C          -0.058687           
         C6        1.0000    0.55577   0.60819   0.53476   Biso      1.000     C          0.112595  
         C7        1.0000    0.60354   0.52138   0.50257   Biso      1.000     C          0.10726600000000001           
         C8        1.0000    0.34538   0.72420   0.10063   Biso      1.000     C          -0.23149299999999998          
         C9        1.0000    0.97983   0.01657   0.14150   Biso      1.000     C          0.044838  
         C10       1.0000    0.89472   0.04988   0.08600   Biso      1.000     C          -0.20568699999999998          
         C11       1.0000    0.78329   0.86631   0.01820   Biso      1.000     C          -0.22039899999999998          
         C12       1.0000    0.79503   0.97053   0.02402   Biso      1.000     C          0.172567  
         C13       1.0000    0.70110   0.00508   0.96166   Biso      1.000     C          -0.287931           
         C14       1.0000    0.59779   0.00141   0.98153   Biso      1.000     C          -0.057249           
         C15       1.0000    0.59171   0.08603   0.05767   Biso      1.000     C          0.111002  
         C16       1.0000    0.87231   0.83909   0.07650   Biso      1.000     C          0.048079000000000004          
         C17       1.0000    0.49719   0.08563   0.07564   Biso      1.000     C          0.110777  
         C18       1.0000    0.16174   0.66404   0.97858   Biso      1.000     C          -0.228144           
         C19       1.0000    0.31500   0.60144   0.93042   Biso      1.000     C          -0.26327399999999995          
         C20       1.0000    0.27882   0.87564   0.45364   Biso      1.000     C          0.043058  
         C21       1.0000    0.22097   0.69851   0.33585   Biso      1.000     C          0.053132000000000006          
         C22       1.0000    0.91437   0.50281   0.42436   Biso      1.000     C          0.110778  
         C23       1.0000    0.91397   0.40829   0.44233   Biso      1.000     C          0.110999  
         C24       1.0000    0.99859   0.40221   0.51847   Biso      1.000     C          -0.057247           
         C25       1.0000    0.99492   0.29890   0.53834   Biso      1.000     C          -0.287929           
         C26       1.0000    0.27411   0.66437   0.00499   Biso      1.000     C          0.1544    
         C27       1.0000    0.02947   0.20497   0.47598   Biso      1.000     C          0.172534  
         C28       1.0000    0.95012   0.10528   0.41400   Biso      1.000     C          -0.20568499999999998          
         C29       1.0000    0.16091   0.12769   0.42350   Biso      1.000     C          0.048072000000000004          
         C30       1.0000    0.98343   0.02017   0.35850   Biso      1.000     C          0.044841000000000006          
         C31       1.0000    0.47862   0.39646   0.99743   Biso      1.000     C          0.10726300000000001           
         C32       1.0000    0.39181   0.44423   0.96524   Biso      1.000     C          0.112596  
         C33       1.0000    0.41004   0.54966   0.96641   Biso      1.000     C          -0.058684           
         C34       1.0000    0.13369   0.21671   0.48180   Biso      1.000     C          -0.22035900000000003          
         C35       1.0000    0.69851   0.22097   0.83585   Biso      1.000     C          0.053128999999999996          
         C36       1.0000    0.87564   0.27882   0.95364   Biso      1.000     C          0.043054  
         C37       1.0000    0.65462   0.27580   0.89937   Biso      1.000     C          -0.23149499999999998          
         C38       1.0000    0.66437   0.27411   0.50499   Biso      1.000     C          0.154398  
         C39       1.0000    0.60144   0.31500   0.43042   Biso      1.000     C          -0.26326900000000003          
         C40       1.0000    0.54966   0.41004   0.46641   Biso      1.000     C          -0.058685           
         C41       1.0000    0.44423   0.39181   0.46524   Biso      1.000     C          0.112595  
         C42       1.0000    0.39646   0.47862   0.49743   Biso      1.000     C          0.107268  
         C43       1.0000    0.02017   0.98343   0.85850   Biso      1.000     C          0.044839  
         C44       1.0000    0.66404   0.16174   0.47858   Biso      1.000     C          -0.22814299999999998          
         C45       1.0000    0.12769   0.16091   0.92350   Biso      1.000     C          0.048076999999999995          
         C46       1.0000    0.21671   0.13369   0.98180   Biso      1.000     C          -0.22039699999999998          
         C47       1.0000    0.20497   0.02947   0.97598   Biso      1.000     C          0.17257   
         C48       1.0000    0.29890   0.99492   0.03834   Biso      1.000     C          -0.287932           
         C49       1.0000    0.40221   0.99859   0.01847   Biso      1.000     C          -0.057249           
         C50       1.0000    0.40829   0.91397   0.94233   Biso      1.000     C          0.111002  
         C51       1.0000    0.50281   0.91437   0.92436   Biso      1.000     C          0.110777  
         C52       1.0000    0.10528   0.95012   0.91400   Biso      1.000     C          -0.20568699999999998          
         C53       1.0000    0.72420   0.34538   0.60063   Biso      1.000     C          -0.23149099999999997          
         C54       1.0000    0.72118   0.12436   0.54636   Biso      1.000     C          0.043063  
         C55       1.0000    0.77903   0.30149   0.66415   Biso      1.000     C          0.053136  
         C56       1.0000    0.83826   0.33596   0.02142   Biso      1.000     C          -0.228147           
         C57       1.0000    0.72589   0.33563   0.99501   Biso      1.000     C          0.154402  
         C58       1.0000    0.68500   0.39856   0.06958   Biso      1.000     C          -0.263275           
         C59       1.0000    0.58996   0.45034   0.03359   Biso      1.000     C          -0.058682000000000005         
         C60       1.0000    0.60819   0.55577   0.03476   Biso      1.000     C          0.11259300000000001           
         C61       1.0000    0.52138   0.60354   0.00257   Biso      1.000     C          0.107268  
         C62       1.0000    0.01657   0.97983   0.64150   Biso      1.000     C          0.044843  
         C63       1.0000    0.83909   0.87231   0.57650   Biso      1.000     C          0.048081  
         C64       1.0000    0.04988   0.89472   0.58600   Biso      1.000     C          -0.205684           
         C65       1.0000    0.86631   0.78329   0.51820   Biso      1.000     C          -0.220392           
         C66       1.0000    0.97053   0.79503   0.52402   Biso      1.000     C          0.172568  
         C67       1.0000    0.00508   0.70110   0.46166   Biso      1.000     C          -0.287929           
         C68       1.0000    0.00141   0.59779   0.48153   Biso      1.000     C          -0.05725  
         C69       1.0000    0.08603   0.59171   0.55767   Biso      1.000     C          0.111002  
         C70       1.0000    0.08563   0.49719   0.57564   Biso      1.000     C          0.110777  
         C71       1.0000    0.27580   0.65462   0.39937   Biso      1.000     C          -0.231488           
         C72       1.0000    0.33596   0.83826   0.52142   Biso      1.000     C          -0.22814099999999998          
         Cd1       1.0000    0.12363   0.87637   0.25000   Biso      1.000     Cd          0.510479  
         Cd2       1.0000    0.87637   0.12363   0.75000   Biso      1.000     Cd          0.5104810000000001  
         F1        1.0000    0.31795   0.82749   0.88275   Biso      1.000     F          -0.10784200000000001          
         F2        1.0000    0.28577   0.38683   0.93187   Biso      1.000     F          -0.117503           
         F3        1.0000    0.45374   0.29318   0.99415   Biso      1.000     F          -0.11431199999999998          
         F4        1.0000    0.82749   0.31795   0.38275   Biso      1.000     F          -0.10784200000000001          
         F5        1.0000    0.82852   0.50152   0.34917   Biso      1.000     F          -0.11488499999999999          
         F6        1.0000    0.61317   0.71423   0.56813   Biso      1.000     F          -0.117504           
         F7        1.0000    0.70682   0.54626   0.50585   Biso      1.000     F          -0.11431400000000001          
         F8        1.0000    0.50152   0.82852   0.84917   Biso      1.000     F          -0.11488399999999999          
         F9        1.0000    0.49848   0.17148   0.15083   Biso      1.000     F          -0.11488399999999999          
         F10       1.0000    0.71423   0.61317   0.06813   Biso      1.000     F          -0.117503           
         F11       1.0000    0.54626   0.70682   0.00585   Biso      1.000     F          -0.11431300000000001          
         F12       1.0000    0.17251   0.68205   0.61725   Biso      1.000     F          -0.10784200000000001          
         F13       1.0000    0.17148   0.49848   0.65083   Biso      1.000     F          -0.11488399999999999          
         F14       1.0000    0.38683   0.28577   0.43187   Biso      1.000     F          -0.117504           
         F15       1.0000    0.29318   0.45374   0.49415   Biso      1.000     F          -0.11431400000000001          
         F16       1.0000    0.68205   0.17251   0.11725   Biso      1.000     F          -0.10784200000000001          
         H1        1.0000    0.86110   0.76530   0.07330   Biso      1.000     H          0.067176  
         H2        1.0000    0.04770   0.07130   0.18560   Biso      1.000     H          0.07713400000000001           
         H3        1.0000    0.04050   0.31950   0.60230   Biso      1.000     H          0.135285  
         H4        1.0000    0.25030   0.53810   0.87250   Biso      1.000     H          0.12867   
         H5        1.0000    0.34060   0.65460   0.91130   Biso      1.000     H          0.131773  
         H6        1.0000    0.11170   0.62150   0.91580   Biso      1.000     H          0.125     
         H7        1.0000    0.35300   0.81780   0.23180   Biso      1.000     H          0.074023  
         H8        1.0000    0.04590   0.71870   0.02750   Biso      1.000     H          0.07370399999999999           
         H9        1.0000    0.18840   0.28480   0.52500   Biso      1.000     H          0.12575899999999998           
         H10       1.0000    0.87580   0.09580   0.40970   Biso      1.000     H          0.128189  
         H11       1.0000    0.23470   0.13890   0.42670   Biso      1.000     H          0.067176  
         H12       1.0000    0.92870   0.95230   0.31440   Biso      1.000     H          0.07713300000000001           
         H13       1.0000    0.90420   0.12420   0.09030   Biso      1.000     H          0.12819   
         H14       1.0000    0.42180   0.72520   0.12460   Biso      1.000     H          0.12138900000000001           
         H15       1.0000    0.71520   0.81160   0.97500   Biso      1.000     H          0.12576199999999998           
         H16       1.0000    0.27070   0.92150   0.02990   Biso      1.000     H          0.13475   
         H17       1.0000    0.28130   0.95410   0.47250   Biso      1.000     H          0.07370399999999999           
         H18       1.0000    0.31950   0.04050   0.10230   Biso      1.000     H          0.135285  
         H19       1.0000    0.53810   0.25030   0.37250   Biso      1.000     H          0.128668  
         H20       1.0000    0.65460   0.34060   0.41130   Biso      1.000     H          0.131773  
         H21       1.0000    0.62150   0.11170   0.41580   Biso      1.000     H          0.124998  
         H22       1.0000    0.72520   0.42180   0.62460   Biso      1.000     H          0.12138800000000001           
         H23       1.0000    0.71870   0.04590   0.52750   Biso      1.000     H          0.07370399999999999           
         H24       1.0000    0.81780   0.35300   0.73180   Biso      1.000     H          0.074022  
         H25       1.0000    0.28480   0.18840   0.02500   Biso      1.000     H          0.12576099999999998           
         H26       1.0000    0.09580   0.87580   0.90970   Biso      1.000     H          0.12818800000000002           
         H27       1.0000    0.13890   0.23470   0.92670   Biso      1.000     H          0.067175  
         H28       1.0000    0.95230   0.92870   0.81440   Biso      1.000     H          0.077132  
         H29       1.0000    0.07850   0.72930   0.47010   Biso      1.000     H          0.134749  
         H30       1.0000    0.95950   0.68050   0.39770   Biso      1.000     H          0.135285  
         H31       1.0000    0.74970   0.46190   0.12750   Biso      1.000     H          0.128671  
         H32       1.0000    0.18220   0.64700   0.26820   Biso      1.000     H          0.074022  
         H33       1.0000    0.92150   0.27070   0.52990   Biso      1.000     H          0.13475   
         H34       1.0000    0.81160   0.71520   0.47500   Biso      1.000     H          0.12575999999999998           
         H35       1.0000    0.27480   0.57820   0.37540   Biso      1.000     H          0.12138800000000001           
         H36       1.0000    0.65940   0.34540   0.08870   Biso      1.000     H          0.131773  
         H37       1.0000    0.37850   0.88830   0.58420   Biso      1.000     H          0.124999  
         H38       1.0000    0.34540   0.65940   0.58870   Biso      1.000     H          0.131773  
         H39       1.0000    0.46190   0.74970   0.62750   Biso      1.000     H          0.128669  
         H40       1.0000    0.68050   0.95950   0.89770   Biso      1.000     H          0.135286  
         H41       1.0000    0.88830   0.37850   0.08420   Biso      1.000     H          0.125001  
         H42       1.0000    0.57820   0.27480   0.87540   Biso      1.000     H          0.12139000000000001           
         H43       1.0000    0.95410   0.28130   0.97250   Biso      1.000     H          0.07370499999999999           
         H44       1.0000    0.64700   0.18220   0.76820   Biso      1.000     H          0.074023  
         H45       1.0000    0.72930   0.07850   0.97010   Biso      1.000     H          0.134751  
         H46       1.0000    0.12420   0.90420   0.59030   Biso      1.000     H          0.12818800000000002           
         H47       1.0000    0.76530   0.86110   0.57330   Biso      1.000     H          0.067175  
         H48       1.0000    0.07130   0.04770   0.68560   Biso      1.000     H          0.07713300000000001           
         N1        1.0000    0.09104   0.02666   0.36280   Biso      1.000     N          -0.260239           
         N2        1.0000    0.02666   0.09104   0.86280   Biso      1.000     N          -0.26024  
         N3        1.0000    0.77825   0.19245   0.63847   Biso      1.000     N          -0.268173           
         N4        1.0000    0.90896   0.97334   0.63720   Biso      1.000     N          -0.26024400000000003          
         N5        1.0000    0.80755   0.22175   0.86153   Biso      1.000     N          -0.268171           
         N6        1.0000    0.22175   0.80755   0.36153   Biso      1.000     N          -0.26817199999999997          
         N7        1.0000    0.19245   0.77825   0.13847   Biso      1.000     N          -0.268167           
         N8        1.0000    0.97334   0.90896   0.13720   Biso      1.000     N          -0.260239 