
##########################################################################
#               Crystallographic Information Format file
#               Produced by PyCifRW module
#
#  This is a CIF file.  CIF has been adopted by the International
#  Union of Crystallography as the standard for data archiving and
#  transmission.
#
#  For information on this file format, follow the CIF links at
#  http://www.iucr.org
##########################################################################

data_image0

_cell_length_a                          12.8267
_cell_length_b                          12.8267
_cell_length_c                          16.69
_cell_angle_alpha                       108.682
_cell_angle_beta                        108.682
_cell_angle_gamma                       95.9725
_symmetry_space_group_name_H-M          'P 1'
_symmetry_int_tables_number             1
loop_
  _symmetry_equiv_pos_as_xyz
         'x, y, z' 
loop_
  _atom_site_label
  _atom_site_occupancy
  _atom_site_fract_x
  _atom_site_fract_y
  _atom_site_fract_z
  _atom_site_thermal_displace_type
  _atom_site_B_iso_or_equiv
  _atom_site_type_symbol
  _atom_site_charge
         C1        1.0000    0.83416   0.22620   0.48959   Biso      1.000     C          0.145122  
         C2        1.0000    0.62375   0.22699   0.05441   Biso      1.000     C          0.032391  
         C3        1.0000    0.79961   0.27445   0.16440   Biso      1.000     C          0.044627  
         C4        1.0000    0.89478   0.18542   0.56405   Biso      1.000     C          -0.266851           
         C5        1.0000    0.94917   0.09001   0.53178   Biso      1.000     C          -0.056292999999999996         
         C6        1.0000    0.89183   0.97791   0.49523   Biso      1.000     C          0.10980699999999999           
         C7        1.0000    0.94109   0.89071   0.46471   Biso      1.000     C          0.10994200000000001           
         C8        1.0000    0.84388   0.21964   0.10166   Biso      1.000     C          -0.226473           
         C9        1.0000    0.37823   0.34133   0.08821   Biso      1.000     C          0.0443    
         C10       1.0000    0.28902   0.36450   0.02877   Biso      1.000     C          -0.21935  
         C11       1.0000    0.40348   0.54272   0.07039   Biso      1.000     C          -0.20758400000000002          
         C12       1.0000    0.29970   0.46736   0.01977   Biso      1.000     C          0.159126  
         C13       1.0000    0.20358   0.49412   0.95419   Biso      1.000     C          -0.25873  
         C14       1.0000    0.09891   0.49479   0.97759   Biso      1.000     C          -0.062358000000000004         
         C15       1.0000    0.09624   0.58176   0.05176   Biso      1.000     C          0.113952  
         C16       1.0000    0.48866   0.51362   0.12777   Biso      1.000     C          0.057226  
         C17       1.0000    0.00047   0.58711   0.07282   Biso      1.000     C          0.11456400000000001           
         C18       1.0000    0.66111   0.16983   0.98765   Biso      1.000     C          -0.22002600000000003          
         C19       1.0000    0.81458   0.10522   0.93595   Biso      1.000     C          -0.266854           
         C20       1.0000    0.77301   0.37625   0.44559   Biso      1.000     C          0.032404  
         C21       1.0000    0.72555   0.20039   0.33560   Biso      1.000     C          0.044621  
         C22       1.0000    0.41289   0.99953   0.42718   Biso      1.000     C          0.11456199999999998           
         C23       1.0000    0.41824   0.90376   0.44824   Biso      1.000     C          0.113954  
         C24       1.0000    0.50521   0.90109   0.52241   Biso      1.000     C          -0.062357           
         C25       1.0000    0.50588   0.79642   0.54581   Biso      1.000     C          -0.258735           
         C26       1.0000    0.77380   0.16584   0.01041   Biso      1.000     C          0.14513399999999999           
         C27       1.0000    0.53264   0.70030   0.48023   Biso      1.000     C          0.15912   
         C28       1.0000    0.63550   0.71098   0.47123   Biso      1.000     C          -0.21935700000000002          
         C29       1.0000    0.48638   0.51134   0.37223   Biso      1.000     C          0.057211  
         C30       1.0000    0.65867   0.62177   0.41179   Biso      1.000     C          0.044297  
         C31       1.0000    0.10929   0.05891   0.03529   Biso      1.000     C          0.10993699999999999           
         C32       1.0000    0.02209   0.10817   0.00477   Biso      1.000     C          0.10981099999999999           
         C33       1.0000    0.90999   0.05083   0.96822   Biso      1.000     C          -0.056290999999999994         
         C34       1.0000    0.45728   0.59652   0.42961   Biso      1.000     C          -0.20758000000000001          
         C35       1.0000    0.20039   0.72555   0.83560   Biso      1.000     C          0.044625  
         C36       1.0000    0.37625   0.77301   0.94559   Biso      1.000     C          0.032388  
         C37       1.0000    0.15612   0.78036   0.89834   Biso      1.000     C          -0.226473           
         C38       1.0000    0.16584   0.77380   0.51041   Biso      1.000     C          0.145124  
         C39       1.0000    0.10522   0.81458   0.43595   Biso      1.000     C          -0.266851           
         C40       1.0000    0.05083   0.90999   0.46822   Biso      1.000     C          -0.056289           
         C41       1.0000    0.10817   0.02209   0.50477   Biso      1.000     C          0.109806  
         C42       1.0000    0.05891   0.10929   0.53529   Biso      1.000     C          0.109946  
         C43       1.0000    0.62177   0.65867   0.91179   Biso      1.000     C          0.044295  
         C44       1.0000    0.16983   0.66111   0.48765   Biso      1.000     C          -0.220048           
         C45       1.0000    0.51134   0.48638   0.87223   Biso      1.000     C          0.057211  
         C46       1.0000    0.59652   0.45728   0.92961   Biso      1.000     C          -0.20758400000000002          
         C47       1.0000    0.70030   0.53264   0.98023   Biso      1.000     C          0.15912300000000001           
         C48       1.0000    0.79642   0.50588   0.04581   Biso      1.000     C          -0.258738           
         C49       1.0000    0.90109   0.50521   0.02241   Biso      1.000     C          -0.062355999999999995         
         C50       1.0000    0.90376   0.41824   0.94824   Biso      1.000     C          0.113952  
         C51       1.0000    0.99953   0.41289   0.92718   Biso      1.000     C          0.11456300000000001           
         C52       1.0000    0.71098   0.63550   0.97123   Biso      1.000     C          -0.21935700000000002          
         C53       1.0000    0.21964   0.84388   0.60166   Biso      1.000     C          -0.226475           
         C54       1.0000    0.22699   0.62375   0.55441   Biso      1.000     C          0.032409  
         C55       1.0000    0.27445   0.79961   0.66440   Biso      1.000     C          0.044629  
         C56       1.0000    0.33889   0.83017   0.01235   Biso      1.000     C          -0.220025           
         C57       1.0000    0.22620   0.83416   0.98959   Biso      1.000     C          0.14513   
         C58       1.0000    0.18542   0.89478   0.06405   Biso      1.000     C          -0.266853           
         C59       1.0000    0.09001   0.94917   0.03178   Biso      1.000     C          -0.056287000000000004         
         C60       1.0000    0.97791   0.89183   0.99523   Biso      1.000     C          0.10980699999999999           
         C61       1.0000    0.89071   0.94109   0.96471   Biso      1.000     C          0.109946  
         C62       1.0000    0.34133   0.37823   0.58821   Biso      1.000     C          0.0443    
         C63       1.0000    0.51362   0.48866   0.62777   Biso      1.000     C          0.057219000000000006          
         C64       1.0000    0.36450   0.28902   0.52877   Biso      1.000     C          -0.21935300000000002          
         C65       1.0000    0.54272   0.40348   0.57039   Biso      1.000     C          -0.207581           
         C66       1.0000    0.46736   0.29970   0.51977   Biso      1.000     C          0.159129  
         C67       1.0000    0.49412   0.20358   0.45419   Biso      1.000     C          -0.258734           
         C68       1.0000    0.49479   0.09891   0.47759   Biso      1.000     C          -0.062357           
         C69       1.0000    0.58176   0.09624   0.55176   Biso      1.000     C          0.113952  
         C70       1.0000    0.58711   0.00047   0.57282   Biso      1.000     C          0.11456400000000001           
         C71       1.0000    0.78036   0.15612   0.39834   Biso      1.000     C          -0.226469           
         C72       1.0000    0.83017   0.33889   0.51235   Biso      1.000     C          -0.220045           
         Cd1       1.0000    0.62074   0.37926   0.25000   Biso      1.000     Cd          0.518231  
         Cd2       1.0000    0.37926   0.62074   0.75000   Biso      1.000     Cd          0.518229  
         F1        1.0000    0.80914   0.33596   0.89440   Biso      1.000     F          -0.10293499999999998          
         F2        1.0000    0.04719   0.21601   0.01111   Biso      1.000     F          -0.109963           
         F3        1.0000    0.21686   0.11996   0.06975   Biso      1.000     F          -0.115998           
         F4        1.0000    0.33596   0.80914   0.39440   Biso      1.000     F          -0.10293499999999998          
         F5        1.0000    0.32404   0.99300   0.35384   Biso      1.000     F          -0.12452  
         F6        1.0000    0.78399   0.95281   0.48889   Biso      1.000     F          -0.109963           
         F7        1.0000    0.88004   0.78314   0.43025   Biso      1.000     F          -0.115998           
         F8        1.0000    0.99300   0.32404   0.85384   Biso      1.000     F          -0.124521           
         F9        1.0000    0.00700   0.67596   0.14616   Biso      1.000     F          -0.124521           
         F10       1.0000    0.95281   0.78399   0.98889   Biso      1.000     F          -0.109963           
         F11       1.0000    0.78314   0.88004   0.93025   Biso      1.000     F          -0.115998           
         F12       1.0000    0.66404   0.19086   0.60560   Biso      1.000     F          -0.10293499999999998          
         F13       1.0000    0.67596   0.00700   0.64616   Biso      1.000     F          -0.124521           
         F14       1.0000    0.21601   0.04719   0.51111   Biso      1.000     F          -0.109963           
         F15       1.0000    0.11996   0.21686   0.56975   Biso      1.000     F          -0.115999           
         F16       1.0000    0.19086   0.66404   0.10560   Biso      1.000     F          -0.10293599999999999          
         H1        1.0000    0.77070   0.45390   0.46300   Biso      1.000     H          0.072122  
         H2        1.0000    0.68940   0.15100   0.27340   Biso      1.000     H          0.079976  
         H3        1.0000    0.56260   0.81680   0.60810   Biso      1.000     H          0.126878  
         H4        1.0000    0.38560   0.58400   0.43440   Biso      1.000     H          0.12226   
         H5        1.0000    0.69100   0.78000   0.50600   Biso      1.000     H          0.11925799999999999           
         H6        1.0000    0.43320   0.44060   0.33840   Biso      1.000     H          0.075792  
         H7        1.0000    0.84010   0.16010   0.91190   Biso      1.000     H          0.128892  
         H8        1.0000    0.75040   0.04620   0.88520   Biso      1.000     H          0.130446  
         H9        1.0000    0.60960   0.13320   0.92620   Biso      1.000     H          0.123701  
         H10       1.0000    0.92180   0.21880   0.12090   Biso      1.000     H          0.11666900000000001           
         H11       1.0000    0.54610   0.22930   0.03700   Biso      1.000     H          0.072121  
         H12       1.0000    0.84900   0.31060   0.22660   Biso      1.000     H          0.079975  
         H13       1.0000    0.78120   0.07820   0.37910   Biso      1.000     H          0.11667000000000001           
         H14       1.0000    0.73040   0.63180   0.40670   Biso      1.000     H          0.067691  
         H15       1.0000    0.86680   0.39040   0.57380   Biso      1.000     H          0.123705  
         H16       1.0000    0.76990   0.43090   0.04620   Biso      1.000     H          0.129997  
         H17       1.0000    0.95380   0.24960   0.61480   Biso      1.000     H          0.130445  
         H18       1.0000    0.81680   0.56260   0.10810   Biso      1.000     H          0.126878  
         H19       1.0000    0.58400   0.38560   0.93440   Biso      1.000     H          0.12225899999999999           
         H20       1.0000    0.78000   0.69100   0.00600   Biso      1.000     H          0.11925799999999999           
         H21       1.0000    0.44060   0.43320   0.83840   Biso      1.000     H          0.075791  
         H22       1.0000    0.63180   0.73040   0.90670   Biso      1.000     H          0.06769   
         H23       1.0000    0.04620   0.75040   0.38520   Biso      1.000     H          0.130445  
         H24       1.0000    0.16010   0.84010   0.41190   Biso      1.000     H          0.128891  
         H25       1.0000    0.13320   0.60960   0.42620   Biso      1.000     H          0.123703  
         H26       1.0000    0.21880   0.92180   0.62090   Biso      1.000     H          0.11666900000000001           
         H27       1.0000    0.22930   0.54610   0.53700   Biso      1.000     H          0.072123  
         H28       1.0000    0.31060   0.84900   0.72660   Biso      1.000     H          0.079974  
         H29       1.0000    0.56910   0.23010   0.45380   Biso      1.000     H          0.129996  
         H30       1.0000    0.43740   0.18320   0.39190   Biso      1.000     H          0.126877  
         H31       1.0000    0.61440   0.41600   0.56560   Biso      1.000     H          0.12225699999999999           
         H32       1.0000    0.83990   0.15990   0.58810   Biso      1.000     H          0.128891  
         H33       1.0000    0.43090   0.76990   0.54620   Biso      1.000     H          0.129997  
         H34       1.0000    0.39040   0.86680   0.07380   Biso      1.000     H          0.12370199999999999           
         H35       1.0000    0.36820   0.26960   0.09330   Biso      1.000     H          0.067687  
         H36       1.0000    0.30900   0.22000   0.49400   Biso      1.000     H          0.119256  
         H37       1.0000    0.55940   0.56680   0.16160   Biso      1.000     H          0.075791  
         H38       1.0000    0.22000   0.30900   0.99400   Biso      1.000     H          0.119255  
         H39       1.0000    0.41600   0.61440   0.06560   Biso      1.000     H          0.12225599999999999           
         H40       1.0000    0.18320   0.43740   0.89190   Biso      1.000     H          0.126876  
         H41       1.0000    0.56680   0.55940   0.66160   Biso      1.000     H          0.075792  
         H42       1.0000    0.26960   0.36820   0.59330   Biso      1.000     H          0.067687  
         H43       1.0000    0.24960   0.95380   0.11480   Biso      1.000     H          0.130445  
         H44       1.0000    0.15990   0.83990   0.08810   Biso      1.000     H          0.128891  
         H45       1.0000    0.23010   0.56910   0.95380   Biso      1.000     H          0.129994  
         H46       1.0000    0.07820   0.78120   0.87910   Biso      1.000     H          0.11666900000000001           
         H47       1.0000    0.45390   0.77070   0.96300   Biso      1.000     H          0.072122  
         H48       1.0000    0.15100   0.68940   0.77340   Biso      1.000     H          0.079974  
         N1        1.0000    0.58534   0.52248   0.36134   Biso      1.000     N          -0.245827           
         N2        1.0000    0.52248   0.58534   0.86134   Biso      1.000     N          -0.24582800000000002          
         N3        1.0000    0.27924   0.69102   0.64229   Biso      1.000     N          -0.266919           
         N4        1.0000    0.41466   0.47752   0.63866   Biso      1.000     N          -0.24583400000000002          
         N5        1.0000    0.30898   0.72076   0.85771   Biso      1.000     N          -0.266916           
         N6        1.0000    0.72076   0.30898   0.35771   Biso      1.000     N          -0.266923           
         N7        1.0000    0.69102   0.27924   0.14229   Biso      1.000     N          -0.266916           
         N8        1.0000    0.47752   0.41466   0.13866   Biso      1.000     N          -0.245837 