
##########################################################################
#               Crystallographic Information Format file
#               Produced by PyCifRW module
#
#  This is a CIF file.  CIF has been adopted by the International
#  Union of Crystallography as the standard for data archiving and
#  transmission.
#
#  For information on this file format, follow the CIF links at
#  http://www.iucr.org
##########################################################################

data_image0

_cell_length_a                          13.047
_cell_length_b                          13.279
_cell_length_c                          16.6145
_cell_angle_alpha                       111.121
_cell_angle_beta                        109.442
_cell_angle_gamma                       92.734
_symmetry_space_group_name_H-M          'P 1'
_symmetry_int_tables_number             1
loop_
  _symmetry_equiv_pos_as_xyz
         'x, y, z' 
loop_
  _atom_site_label
  _atom_site_occupancy
  _atom_site_fract_x
  _atom_site_fract_y
  _atom_site_fract_z
  _atom_site_thermal_displace_type
  _atom_site_B_iso_or_equiv
  _atom_site_type_symbol
  _atom_site_charge
         C1        1.0000    0.53260   0.70940   0.48440   Biso      1.000     C          0.156242  
         C2        1.0000    0.79600   0.27680   0.15780   Biso      1.000     C          0.037556  
         C3        1.0000    0.61920   0.22140   0.04800   Biso      1.000     C          0.031725  
         C4        1.0000    0.50400   0.80560   0.55160   Biso      1.000     C          -0.256427           
         C5        1.0000    0.50510   0.90670   0.52510   Biso      1.000     C          -0.06761  
         C6        1.0000    0.41690   0.91310   0.45210   Biso      1.000     C          0.114465  
         C7        1.0000    0.41110   0.00270   0.42690   Biso      1.000     C          0.117246  
         C8        1.0000    0.65660   0.16370   0.98040   Biso      1.000     C          -0.222995           
         C9        1.0000    0.73040   0.20850   0.33530   Biso      1.000     C          0.061412  
         C10       1.0000    0.78910   0.16480   0.39720   Biso      1.000     C          -0.239098           
         C11       1.0000    0.83680   0.34530   0.51700   Biso      1.000     C          -0.210928           
         C12       1.0000    0.84420   0.23550   0.49150   Biso      1.000     C          0.144632  
         C13       1.0000    0.90900   0.19660   0.56690   Biso      1.000     C          -0.266958           
         C14       1.0000    0.95560   0.09390   0.53280   Biso      1.000     C          -0.062902           
         C15       1.0000    0.06000   0.10560   0.53170   Biso      1.000     C          0.111102  
         C16       1.0000    0.77600   0.38070   0.45140   Biso      1.000     C          0.017391  
         C17       1.0000    0.10340   0.01190   0.50030   Biso      1.000     C          0.11204   
         C18       1.0000    0.83860   0.21980   0.09400   Biso      1.000     C          -0.225768           
         C19       1.0000    0.80970   0.09550   0.92510   Biso      1.000     C          -0.26512  
         C20       1.0000    0.65270   0.62970   0.40820   Biso      1.000     C          0.020737  
         C21       1.0000    0.49570   0.52060   0.38480   Biso      1.000     C          0.072589  
         C22       1.0000    0.99790   0.59230   0.06980   Biso      1.000     C          0.123624  
         C23       1.0000    0.08730   0.58370   0.04530   Biso      1.000     C          0.112864  
         C24       1.0000    0.09250   0.49130   0.97370   Biso      1.000     C          -0.064437           
         C25       1.0000    0.19320   0.48830   0.94770   Biso      1.000     C          -0.258522           
         C26       1.0000    0.76850   0.15990   0.00040   Biso      1.000     C          0.143371  
         C27       1.0000    0.28900   0.45990   0.01560   Biso      1.000     C          0.15329   
         C28       1.0000    0.28180   0.36190   0.02510   Biso      1.000     C          -0.211149           
         C29       1.0000    0.47440   0.50340   0.12830   Biso      1.000     C          0.055011  
         C30       1.0000    0.36960   0.33860   0.08970   Biso      1.000     C          0.03424   
         C31       1.0000    0.10450   0.05780   0.03180   Biso      1.000     C          0.107312  
         C32       1.0000    0.01590   0.10240   0.99590   Biso      1.000     C          0.105689  
         C33       1.0000    0.90710   0.04580   0.96280   Biso      1.000     C          -0.06328  
         C34       1.0000    0.38830   0.53240   0.06900   Biso      1.000     C          -0.206369           
         C35       1.0000    0.38080   0.77860   0.95200   Biso      1.000     C          0.031731  
         C36       1.0000    0.20400   0.72320   0.84220   Biso      1.000     C          0.037562  
         C37       1.0000    0.34340   0.83630   0.01960   Biso      1.000     C          -0.222989           
         C38       1.0000    0.46740   0.29060   0.51560   Biso      1.000     C          0.156242  
         C39       1.0000    0.49600   0.19440   0.44840   Biso      1.000     C          -0.256424           
         C40       1.0000    0.49490   0.09330   0.47490   Biso      1.000     C          -0.067611           
         C41       1.0000    0.58310   0.08690   0.54790   Biso      1.000     C          0.114466  
         C42       1.0000    0.58890   0.99730   0.57310   Biso      1.000     C          0.117246  
         C43       1.0000    0.26960   0.79150   0.66470   Biso      1.000     C          0.061408  
         C44       1.0000    0.37370   0.27980   0.53440   Biso      1.000     C          -0.204454           
         C45       1.0000    0.22400   0.61930   0.54860   Biso      1.000     C          0.017378  
         C46       1.0000    0.16320   0.65470   0.48300   Biso      1.000     C          -0.210925           
         C47       1.0000    0.15580   0.76450   0.50850   Biso      1.000     C          0.144634  
         C48       1.0000    0.09100   0.80340   0.43310   Biso      1.000     C          -0.266961           
         C49       1.0000    0.04440   0.90610   0.46720   Biso      1.000     C          -0.062898           
         C50       1.0000    0.94000   0.89440   0.46830   Biso      1.000     C          0.111101  
         C51       1.0000    0.89660   0.98810   0.49970   Biso      1.000     C          0.112042  
         C52       1.0000    0.21090   0.83520   0.60280   Biso      1.000     C          -0.239103           
         C53       1.0000    0.53680   0.39310   0.55760   Biso      1.000     C          -0.222742           
         C54       1.0000    0.34730   0.37030   0.59180   Biso      1.000     C          0.020748  
         C55       1.0000    0.50430   0.47940   0.61520   Biso      1.000     C          0.072596  
         C56       1.0000    0.16140   0.78020   0.90600   Biso      1.000     C          -0.225761           
         C57       1.0000    0.23150   0.84010   0.99960   Biso      1.000     C          0.143372  
         C58       1.0000    0.19030   0.90450   0.07490   Biso      1.000     C          -0.265117           
         C59       1.0000    0.09290   0.95420   0.03720   Biso      1.000     C          -0.063281           
         C60       1.0000    0.98410   0.89760   0.00410   Biso      1.000     C          0.105684  
         C61       1.0000    0.89550   0.94220   0.96820   Biso      1.000     C          0.107317  
         C62       1.0000    0.63040   0.66140   0.91030   Biso      1.000     C          0.034243  
         C63       1.0000    0.52560   0.49660   0.87170   Biso      1.000     C          0.055017  
         C64       1.0000    0.71820   0.63810   0.97490   Biso      1.000     C          -0.211151           
         C65       1.0000    0.61170   0.46760   0.93100   Biso      1.000     C          -0.206369           
         C66       1.0000    0.71100   0.54010   0.98440   Biso      1.000     C          0.153299  
         C67       1.0000    0.80680   0.51170   0.05230   Biso      1.000     C          -0.258521           
         C68       1.0000    0.90750   0.50870   0.02630   Biso      1.000     C          -0.064426           
         C69       1.0000    0.91270   0.41630   0.95470   Biso      1.000     C          0.112851  
         C70       1.0000    0.00210   0.40770   0.93020   Biso      1.000     C          0.123645  
         C71       1.0000    0.46320   0.60690   0.44240   Biso      1.000     C          -0.222742           
         C72       1.0000    0.62630   0.72020   0.46560   Biso      1.000     C          -0.204452           
         Cd1       1.0000    0.61748   0.37919   0.25077   Biso      1.000     Cd          0.552147  
         Cd2       1.0000    0.38252   0.62081   0.74923   Biso      1.000     Cd          0.552154  
         F1        1.0000    0.87870   0.79510   0.43840   Biso      1.000     F          -0.102361           
         F2        1.0000    0.03310   0.20280   0.99360   Biso      1.000     F          -0.11116  
         F3        1.0000    0.20670   0.11630   0.06060   Biso      1.000     F          -0.117676           
         F4        1.0000    0.17500   0.66980   0.09130   Biso      1.000     F          -0.113239           
         F5        1.0000    0.00190   0.68500   0.13950   Biso      1.000     F          -0.118062           
         F6        1.0000    0.33120   0.82610   0.40100   Biso      1.000     F          -0.115723           
         F7        1.0000    0.32230   0.00100   0.35420   Biso      1.000     F          -0.121728           
         F8        1.0000    0.79490   0.97340   0.49890   Biso      1.000     F          -0.103276           
         F9        1.0000    0.20510   0.02660   0.50110   Biso      1.000     F          -0.103276           
         F10       1.0000    0.96690   0.79720   0.00640   Biso      1.000     F          -0.111161           
         F11       1.0000    0.79330   0.88370   0.93940   Biso      1.000     F          -0.117676           
         F12       1.0000    0.82500   0.33020   0.90870   Biso      1.000     F          -0.113238           
         F13       1.0000    0.99810   0.31500   0.86050   Biso      1.000     F          -0.118063           
         F14       1.0000    0.66880   0.17390   0.59900   Biso      1.000     F          -0.115723           
         F15       1.0000    0.67770   0.99900   0.64580   Biso      1.000     F          -0.121728           
         F16       1.0000    0.12130   0.20490   0.56160   Biso      1.000     F          -0.102361           
         H1        1.0000    0.71950   0.63780   0.39800   Biso      1.000     H          0.073988  
         H2        1.0000    0.44980   0.44990   0.35700   Biso      1.000     H          0.071595  
         H3        1.0000    0.21760   0.56080   0.94900   Biso      1.000     H          0.13251   
         H4        1.0000    0.39840   0.60190   0.06560   Biso      1.000     H          0.122406  
         H5        1.0000    0.21610   0.30790   0.98740   Biso      1.000     H          0.120728  
         H6        1.0000    0.54280   0.55410   0.16220   Biso      1.000     H          0.076503  
         H7        1.0000    0.74870   0.03600   0.87420   Biso      1.000     H          0.130825  
         H8        1.0000    0.83190   0.14490   0.89880   Biso      1.000     H          0.13137   
         H9        1.0000    0.91590   0.22060   0.11280   Biso      1.000     H          0.117374  
         H10       1.0000    0.60520   0.12530   0.91830   Biso      1.000     H          0.120999  
         H11       1.0000    0.84620   0.31730   0.22010   Biso      1.000     H          0.078971  
         H12       1.0000    0.54190   0.22100   0.03090   Biso      1.000     H          0.076651  
         H13       1.0000    0.39690   0.59630   0.45270   Biso      1.000     H          0.125574  
         H14       1.0000    0.35910   0.27170   0.09710   Biso      1.000     H          0.074556  
         H15       1.0000    0.67320   0.79020   0.49220   Biso      1.000     H          0.121157  
         H16       1.0000    0.14040   0.81730   0.40260   Biso      1.000     H          0.131915  
         H17       1.0000    0.42970   0.78350   0.55030   Biso      1.000     H          0.131924  
         H18       1.0000    0.02890   0.74310   0.38520   Biso      1.000     H          0.126503  
         H19       1.0000    0.12640   0.60410   0.42020   Biso      1.000     H          0.127628  
         H20       1.0000    0.20810   0.91130   0.62370   Biso      1.000     H          0.119805  
         H21       1.0000    0.23010   0.54400   0.52920   Biso      1.000     H          0.07577   
         H22       1.0000    0.30700   0.84010   0.72810   Biso      1.000     H          0.079348  
         H23       1.0000    0.57030   0.21650   0.44970   Biso      1.000     H          0.131921  
         H24       1.0000    0.44170   0.17400   0.38430   Biso      1.000     H          0.128988  
         H25       1.0000    0.32680   0.20980   0.50780   Biso      1.000     H          0.121154  
         H26       1.0000    0.60310   0.40370   0.54730   Biso      1.000     H          0.125573  
         H27       1.0000    0.28050   0.36220   0.60200   Biso      1.000     H          0.073988  
         H28       1.0000    0.55020   0.55010   0.64300   Biso      1.000     H          0.071592  
         H29       1.0000    0.82640   0.56740   0.11640   Biso      1.000     H          0.128135  
         H30       1.0000    0.78240   0.43920   0.05100   Biso      1.000     H          0.132509  
         H31       1.0000    0.60160   0.39810   0.93440   Biso      1.000     H          0.122405  
         H32       1.0000    0.55830   0.82600   0.61570   Biso      1.000     H          0.128989  
         H33       1.0000    0.17360   0.43260   0.88360   Biso      1.000     H          0.128135  
         H34       1.0000    0.08410   0.77940   0.88720   Biso      1.000     H          0.117371  
         H35       1.0000    0.69300   0.15990   0.27190   Biso      1.000     H          0.079347  
         H36       1.0000    0.78390   0.69210   0.01260   Biso      1.000     H          0.120727  
         H37       1.0000    0.76990   0.45600   0.47080   Biso      1.000     H          0.075768  
         H38       1.0000    0.79190   0.08870   0.37630   Biso      1.000     H          0.119804  
         H39       1.0000    0.87360   0.39590   0.57980   Biso      1.000     H          0.127626  
         H40       1.0000    0.97110   0.25690   0.61480   Biso      1.000     H          0.126502  
         H41       1.0000    0.45720   0.44590   0.83780   Biso      1.000     H          0.076503  
         H42       1.0000    0.64090   0.72830   0.90290   Biso      1.000     H          0.074556  
         H43       1.0000    0.16810   0.85510   0.10120   Biso      1.000     H          0.131371  
         H44       1.0000    0.25130   0.96400   0.12580   Biso      1.000     H          0.130822  
         H45       1.0000    0.85960   0.18270   0.59740   Biso      1.000     H          0.131915  
         H46       1.0000    0.39480   0.87470   0.08170   Biso      1.000     H          0.120995  
         H47       1.0000    0.15380   0.68270   0.77990   Biso      1.000     H          0.078969  
         H48       1.0000    0.45810   0.77900   0.96910   Biso      1.000     H          0.07665   
         N1        1.0000    0.46760   0.40930   0.14090   Biso      1.000     N          -0.249147           
         N2        1.0000    0.27650   0.68670   0.64080   Biso      1.000     N          -0.273806           
         N3        1.0000    0.41470   0.47060   0.63410   Biso      1.000     N          -0.252008           
         N4        1.0000    0.53240   0.59070   0.85910   Biso      1.000     N          -0.249156           
         N5        1.0000    0.31310   0.72040   0.86150   Biso      1.000     N          -0.282986           
         N6        1.0000    0.58530   0.52940   0.36590   Biso      1.000     N          -0.251999           
         N7        1.0000    0.68690   0.27960   0.13850   Biso      1.000     N          -0.282979           
         N8        1.0000    0.72350   0.31330   0.35920   Biso      1.000     N          -0.273807 