
##########################################################################
#               Crystallographic Information Format file
#               Produced by PyCifRW module
#
#  This is a CIF file.  CIF has been adopted by the International
#  Union of Crystallography as the standard for data archiving and
#  transmission.
#
#  For information on this file format, follow the CIF links at
#  http://www.iucr.org
##########################################################################

data_image0

_cell_length_a                          12.9299
_cell_length_b                          13.18
_cell_length_c                          16.5203
_cell_angle_alpha                       111.361
_cell_angle_beta                        108.278
_cell_angle_gamma                       93.778
_symmetry_space_group_name_H-M          'P 1'
_symmetry_int_tables_number             1
loop_
  _symmetry_equiv_pos_as_xyz
         'x, y, z' 
loop_
  _atom_site_label
  _atom_site_occupancy
  _atom_site_fract_x
  _atom_site_fract_y
  _atom_site_fract_z
  _atom_site_thermal_displace_type
  _atom_site_B_iso_or_equiv
  _atom_site_type_symbol
  _atom_site_charge
         C1        1.0000    0.48006   0.29526   0.02218   Biso      1.000     C          0.172987  
         C2        1.0000    0.20489   0.71480   0.35010   Biso      1.000     C          0.032708  
         C3        1.0000    0.38078   0.78911   0.45778   Biso      1.000     C          0.031167  
         C4        1.0000    0.51395   0.19872   0.95897   Biso      1.000     C          -0.293377           
         C5        1.0000    0.50585   0.09610   0.97967   Biso      1.000     C          -0.04555  
         C6        1.0000    0.58467   0.08887   0.05507   Biso      1.000     C          0.10993199999999999           
         C7        1.0000    0.57980   0.99557   0.07498   Biso      1.000     C          0.112098  
         C8        1.0000    0.34177   0.84693   0.52623   Biso      1.000     C          -0.225052           
         C9        1.0000    0.52985   0.49920   0.36970   Biso      1.000     C          0.066986  
         C10       1.0000    0.61499   0.47392   0.42920   Biso      1.000     C          -0.21904  
         C11       1.0000    0.71564   0.65387   0.48093   Biso      1.000     C          -0.23015700000000003          
         C12       1.0000    0.71008   0.55233   0.48726   Biso      1.000     C          0.173328  
         C13       1.0000    0.80503   0.52859   0.55521   Biso      1.000     C          -0.281389           
         C14       1.0000    0.90519   0.51512   0.52648   Biso      1.000     C          -0.05354299999999999          
         C15       1.0000    0.90658   0.41963   0.45556   Biso      1.000     C          0.108418  
         C16       1.0000    0.62716   0.67265   0.41875   Biso      1.000     C          0.063951  
         C17       1.0000    0.99777   0.40418   0.42945   Biso      1.000     C          0.11239400000000001           
         C18       1.0000    0.15934   0.76950   0.41451   Biso      1.000     C          -0.22102199999999997          
         C19       1.0000    0.18239   0.90227   0.57872   Biso      1.000     C          -0.29298  
         C20       1.0000    0.50453   0.48990   0.11316   Biso      1.000     C          0.05611699999999999           
         C21       1.0000    0.36050   0.37109   0.10279   Biso      1.000     C          0.053834  
         C22       1.0000    0.89932   0.99009   0.00846   Biso      1.000     C          0.10993399999999999           
         C23       1.0000    0.94484   0.89765   0.98065   Biso      1.000     C          0.106011  
         C24       1.0000    0.04745   0.90472   0.97130   Biso      1.000     C          -0.041898000000000005         
         C25       1.0000    0.09517   0.80239   0.93842   Biso      1.000     C          -0.299692           
         C26       1.0000    0.22802   0.83796   0.50519   Biso      1.000     C          0.162768  
         C27       1.0000    0.15451   0.76542   0.01444   Biso      1.000     C          0.167811  
         C28       1.0000    0.21249   0.83737   0.10648   Biso      1.000     C          -0.237938           
         C29       1.0000    0.21419   0.61813   0.05813   Biso      1.000     C          0.042189  
         C30       1.0000    0.26966   0.79641   0.16945   Biso      1.000     C          0.04564   
         C31       1.0000    0.02242   0.09972   0.49549   Biso      1.000     C          0.102524  
         C32       1.0000    0.10799   0.05390   0.53292   Biso      1.000     C          0.106492  
         C33       1.0000    0.08839   0.95271   0.53954   Biso      1.000     C          -0.057649           
         C34       1.0000    0.15518   0.65305   0.99119   Biso      1.000     C          -0.237256           
         C35       1.0000    0.61922   0.21089   0.54222   Biso      1.000     C          0.031177999999999997          
         C36       1.0000    0.79511   0.28520   0.64990   Biso      1.000     C          0.032722  
         C37       1.0000    0.65823   0.15307   0.47377   Biso      1.000     C          -0.225034           
         C38       1.0000    0.51994   0.70474   0.97782   Biso      1.000     C          0.172987  
         C39       1.0000    0.48605   0.80128   0.04103   Biso      1.000     C          -0.293377           
         C40       1.0000    0.49415   0.90390   0.02033   Biso      1.000     C          -0.045548000000000005         
         C41       1.0000    0.41533   0.91113   0.94493   Biso      1.000     C          0.10993199999999999           
         C42       1.0000    0.42020   0.00443   0.92502   Biso      1.000     C          0.112099  
         C43       1.0000    0.47015   0.50080   0.63030   Biso      1.000     C          0.066991  
         C44       1.0000    0.46316   0.59647   0.94364   Biso      1.000     C          -0.216319           
         C45       1.0000    0.37284   0.32735   0.58125   Biso      1.000     C          0.063956  
         C46       1.0000    0.28436   0.34613   0.51907   Biso      1.000     C          -0.230154           
         C47       1.0000    0.28992   0.44767   0.51274   Biso      1.000     C          0.173326  
         C48       1.0000    0.19497   0.47141   0.44479   Biso      1.000     C          -0.281387           
         C49       1.0000    0.09481   0.48488   0.47352   Biso      1.000     C          -0.053541           
         C50       1.0000    0.09342   0.58037   0.54444   Biso      1.000     C          0.108418  
         C51       1.0000    0.00223   0.59582   0.57055   Biso      1.000     C          0.112397  
         C52       1.0000    0.38501   0.52608   0.57080   Biso      1.000     C          -0.219031           
         C53       1.0000    0.61054   0.71953   0.95343   Biso      1.000     C          -0.23078400000000002          
         C54       1.0000    0.49547   0.51010   0.88684   Biso      1.000     C          0.056119  
         C55       1.0000    0.63950   0.62891   0.89721   Biso      1.000     C          0.053831  
         C56       1.0000    0.84066   0.23050   0.58549   Biso      1.000     C          -0.221005           
         C57       1.0000    0.77198   0.16204   0.49481   Biso      1.000     C          0.162759  
         C58       1.0000    0.81761   0.09773   0.42128   Biso      1.000     C          -0.292966           
         C59       1.0000    0.91161   0.04729   0.46046   Biso      1.000     C          -0.057654           
         C60       1.0000    0.89201   0.94610   0.46708   Biso      1.000     C          0.106491  
         C61       1.0000    0.97758   0.90028   0.50451   Biso      1.000     C          0.10253   
         C62       1.0000    0.73034   0.20359   0.83055   Biso      1.000     C          0.045632  
         C63       1.0000    0.78581   0.38187   0.94187   Biso      1.000     C          0.04218   
         C64       1.0000    0.78751   0.16263   0.89352   Biso      1.000     C          -0.237952           
         C65       1.0000    0.84482   0.34695   0.00881   Biso      1.000     C          -0.237267           
         C66       1.0000    0.84549   0.23458   0.98556   Biso      1.000     C          0.167823  
         C67       1.0000    0.90483   0.19761   0.06158   Biso      1.000     C          -0.2997   
         C68       1.0000    0.95255   0.09528   0.02870   Biso      1.000     C          -0.04189  
         C69       1.0000    0.05516   0.10235   0.01935   Biso      1.000     C          0.10600699999999999           
         C70       1.0000    0.10068   0.00991   0.99154   Biso      1.000     C          0.10994000000000001           
         C71       1.0000    0.38946   0.28047   0.04657   Biso      1.000     C          -0.230785           
         C72       1.0000    0.53684   0.40353   0.05636   Biso      1.000     C          -0.21631799999999998          
         Cd1       1.0000    0.38266   0.62479   0.25413   Biso      1.000     Cd          0.49125   
         Cd2       1.0000    0.61734   0.37521   0.74587   Biso      1.000     Cd          0.491254  
         F1        1.0000    0.18559   0.66236   0.59102   Biso      1.000     F          -0.10609600000000001          
         F2        1.0000    0.21378   0.10847   0.56376   Biso      1.000     F          -0.11527799999999999          
         F3        1.0000    0.04776   0.19914   0.49277   Biso      1.000     F          -0.113349           
         F4        1.0000    0.88681   0.79743   0.96125   Biso      1.000     F          -0.11501099999999999          
         F5        1.0000    0.79850   0.97595   0.01586   Biso      1.000     F          -0.11591099999999999          
         F6        1.0000    0.67008   0.17665   0.11236   Biso      1.000     F          -0.110161           
         F7        1.0000    0.66183   0.99576   0.14935   Biso      1.000     F          -0.11564200000000001          
         F8        1.0000    0.00931   0.69161   0.64156   Biso      1.000     F          -0.12053  
         F9        1.0000    0.99069   0.30839   0.35844   Biso      1.000     F          -0.12053  
         F10       1.0000    0.78622   0.89153   0.43624   Biso      1.000     F          -0.11527899999999999          
         F11       1.0000    0.95224   0.80086   0.50723   Biso      1.000     F          -0.113348           
         F12       1.0000    0.11319   0.20257   0.03875   Biso      1.000     F          -0.11500999999999999          
         F13       1.0000    0.20150   0.02405   0.98414   Biso      1.000     F          -0.11591099999999999          
         F14       1.0000    0.32992   0.82335   0.88764   Biso      1.000     F          -0.110161           
         F15       1.0000    0.33817   0.00424   0.85065   Biso      1.000     F          -0.11564100000000001          
         F16       1.0000    0.81441   0.33764   0.40898   Biso      1.000     F          -0.106097           
         H1        1.0000    0.54410   0.56170   0.13730   Biso      1.000     H          0.075708  
         H2        1.0000    0.29730   0.36410   0.12010   Biso      1.000     H          0.061610000000000005          
         H3        1.0000    0.14270   0.81530   0.91150   Biso      1.000     H          0.14540899999999998           
         H4        1.0000    0.11530   0.60210   0.93270   Biso      1.000     H          0.127775  
         H5        1.0000    0.21540   0.90980   0.12590   Biso      1.000     H          0.125903  
         H6        1.0000    0.21180   0.53870   0.04040   Biso      1.000     H          0.073961  
         H7        1.0000    0.15190   0.84920   0.59620   Biso      1.000     H          0.140476  
         H8        1.0000    0.23710   0.95910   0.62780   Biso      1.000     H          0.147079  
         H9        1.0000    0.08230   0.76260   0.39510   Biso      1.000     H          0.11913499999999999           
         H10       1.0000    0.39160   0.89510   0.58400   Biso      1.000     H          0.126106  
         H11       1.0000    0.16150   0.67440   0.29110   Biso      1.000     H          0.083096  
         H12       1.0000    0.45680   0.79910   0.47380   Biso      1.000     H          0.076198  
         H13       1.0000    0.35280   0.21250   0.02750   Biso      1.000     H          0.125026  
         H14       1.0000    0.30760   0.84400   0.22960   Biso      1.000     H          0.078789  
         H15       1.0000    0.59780   0.42020   0.04220   Biso      1.000     H          0.12177400000000001           
         H16       1.0000    0.22220   0.53700   0.44100   Biso      1.000     H          0.135993  
         H17       1.0000    0.46930   0.18160   0.89790   Biso      1.000     H          0.140558  
         H18       1.0000    0.17440   0.41250   0.38500   Biso      1.000     H          0.134193  
         H19       1.0000    0.22400   0.29160   0.48270   Biso      1.000     H          0.127627  
         H20       1.0000    0.40200   0.58800   0.55900   Biso      1.000     H          0.124368  
         H21       1.0000    0.37240   0.25490   0.58670   Biso      1.000     H          0.057638999999999996          
         H22       1.0000    0.53700   0.55500   0.66900   Biso      1.000     H          0.070899  
         H23       1.0000    0.53070   0.81840   0.10210   Biso      1.000     H          0.140557  
         H24       1.0000    0.41330   0.77700   0.03370   Biso      1.000     H          0.142096  
         H25       1.0000    0.40220   0.57980   0.95780   Biso      1.000     H          0.121775  
         H26       1.0000    0.64720   0.78750   0.97250   Biso      1.000     H          0.125026  
         H27       1.0000    0.45590   0.43830   0.86270   Biso      1.000     H          0.075708  
         H28       1.0000    0.70270   0.63590   0.87990   Biso      1.000     H          0.061611  
         H29       1.0000    0.96260   0.25840   0.10770   Biso      1.000     H          0.140324  
         H30       1.0000    0.85730   0.18470   0.08850   Biso      1.000     H          0.14540799999999998           
         H31       1.0000    0.88470   0.39790   0.06730   Biso      1.000     H          0.127778  
         H32       1.0000    0.58670   0.22300   0.96630   Biso      1.000     H          0.142097  
         H33       1.0000    0.03740   0.74160   0.89230   Biso      1.000     H          0.140321  
         H34       1.0000    0.91770   0.23740   0.60490   Biso      1.000     H          0.11913   
         H35       1.0000    0.46300   0.44500   0.33100   Biso      1.000     H          0.070899  
         H36       1.0000    0.78460   0.09020   0.87410   Biso      1.000     H          0.125907  
         H37       1.0000    0.62760   0.74510   0.41330   Biso      1.000     H          0.057641  
         H38       1.0000    0.59800   0.41200   0.44100   Biso      1.000     H          0.12437000000000001           
         H39       1.0000    0.77600   0.70840   0.51730   Biso      1.000     H          0.127629  
         H40       1.0000    0.82560   0.58750   0.61500   Biso      1.000     H          0.134192  
         H41       1.0000    0.78820   0.46130   0.95960   Biso      1.000     H          0.073962  
         H42       1.0000    0.69240   0.15600   0.77040   Biso      1.000     H          0.078789  
         H43       1.0000    0.76290   0.04090   0.37220   Biso      1.000     H          0.147074  
         H44       1.0000    0.84810   0.15080   0.40380   Biso      1.000     H          0.140477  
         H45       1.0000    0.77780   0.46300   0.55900   Biso      1.000     H          0.135993  
         H46       1.0000    0.60840   0.10490   0.41600   Biso      1.000     H          0.12609800000000002           
         H47       1.0000    0.83850   0.32560   0.70890   Biso      1.000     H          0.083091  
         H48       1.0000    0.54320   0.20090   0.52620   Biso      1.000     H          0.076196  
         N1        1.0000    0.27206   0.68812   0.14678   Biso      1.000     N          -0.269835           
         N2        1.0000    0.46620   0.40266   0.63587   Biso      1.000     N          -0.25258400000000003          
         N3        1.0000    0.58345   0.52443   0.86231   Biso      1.000     N          -0.257847           
         N4        1.0000    0.72794   0.31188   0.85322   Biso      1.000     N          -0.26983  
         N5        1.0000    0.68551   0.27676   0.63006   Biso      1.000     N          -0.25443000000000005          
         N6        1.0000    0.41655   0.47557   0.13769   Biso      1.000     N          -0.257846           
         N7        1.0000    0.31449   0.72324   0.36994   Biso      1.000     N          -0.254416           
         N8        1.0000    0.53380   0.59734   0.36413   Biso      1.000     N          -0.252579 