
##########################################################################
#               Crystallographic Information Format file
#               Produced by PyCifRW module
#
#  This is a CIF file.  CIF has been adopted by the International
#  Union of Crystallography as the standard for data archiving and
#  transmission.
#
#  For information on this file format, follow the CIF links at
#  http://www.iucr.org
##########################################################################

data_image0

_cell_length_a                          8.986
_cell_length_b                          14.915
_cell_length_c                          26.759
_cell_angle_alpha                       96.272
_cell_angle_beta                        90
_cell_angle_gamma                       90
_symmetry_space_group_name_H-M          'P 1'
_symmetry_int_tables_number             1
loop_
  _symmetry_equiv_pos_as_xyz
         'x, y, z' 
loop_
  _atom_site_label
  _atom_site_occupancy
  _atom_site_fract_x
  _atom_site_fract_y
  _atom_site_fract_z
  _atom_site_thermal_displace_type
  _atom_site_B_iso_or_equiv
  _atom_site_type_symbol
  _atom_site_charge
         C1        1.0000    0.08180   0.58285   0.09870   Biso      1.000     C          0.562297  
         C2        1.0000    0.43140   0.78204   0.50142   Biso      1.000     C          -0.14052699999999999          
         C3        1.0000    0.40870   0.69759   0.47470   Biso      1.000     C          0.072503  
         C4        1.0000    0.58340   0.56933   0.63760   Biso      1.000     C          -0.150847           
         C5        1.0000    0.64610   0.56405   0.68402   Biso      1.000     C          -0.096302           
         C6        1.0000    0.56890   0.52519   0.72095   Biso      1.000     C          -0.011346           
         C7        1.0000    0.42780   0.49106   0.71003   Biso      1.000     C          -0.08981499999999999          
         C8        1.0000    0.36450   0.49531   0.66320   Biso      1.000     C          -0.144222           
         C9        1.0000    0.44140   0.53560   0.62614   Biso      1.000     C          0.07411000000000001           
         C10       1.0000    0.27750   0.54881   0.47744   Biso      1.000     C          -0.195408           
         C11       1.0000    0.36180   0.62004   0.50100   Biso      1.000     C          0.09463300000000001           
         C12       1.0000    0.41150   0.61470   0.54992   Biso      1.000     C          -0.16023900000000002          
         C13       1.0000    0.37850   0.54101   0.57548   Biso      1.000     C          0.096317  
         C14       1.0000    0.29230   0.47096   0.55124   Biso      1.000     C          -0.206794           
         C15       1.0000    0.24220   0.47399   0.50241   Biso      1.000     C          0.10304300000000001           
         C16       1.0000    0.96120   0.34281   0.41749   Biso      1.000     C          -0.10568  
         C17       1.0000    0.04730   0.41307   0.44008   Biso      1.000     C          -0.142734           
         C18       1.0000    0.15250   0.39783   0.47659   Biso      1.000     C          0.073797  
         C19       1.0000    0.17120   0.31007   0.48891   Biso      1.000     C          -0.138694           
         C20       1.0000    0.08450   0.24050   0.46630   Biso      1.000     C          -0.084162           
         C21       1.0000    0.97830   0.25625   0.43096   Biso      1.000     C          0.003643  
         C22       1.0000    0.61990   0.68200   0.90704   Biso      1.000     C          0.545094  
         C23       1.0000    0.86100   0.02379   0.27209   Biso      1.000     C          0.560267  
         C24       1.0000    0.91820   0.41715   0.90130   Biso      1.000     C          0.5623020000000001  
         C25       1.0000    0.44030   0.68702   0.42351   Biso      1.000     C          -0.1512   
         C26       1.0000    0.00320   0.25757   0.89968   Biso      1.000     C          -0.095384           
         C27       1.0000    0.48800   0.85287   0.47757   Biso      1.000     C          -0.079968           
         C28       1.0000    0.49680   0.75757   0.39968   Biso      1.000     C          -0.095384           
         C29       1.0000    0.82880   0.68993   0.51109   Biso      1.000     C          -0.138694           
         C30       1.0000    0.84750   0.60217   0.52341   Biso      1.000     C          0.073797  
         C31       1.0000    0.95270   0.58693   0.55992   Biso      1.000     C          -0.142735           
         C32       1.0000    0.03880   0.65719   0.58251   Biso      1.000     C          -0.10568  
         C33       1.0000    0.75780   0.52601   0.49759   Biso      1.000     C          0.10304300000000001           
         C34       1.0000    0.70770   0.52904   0.44876   Biso      1.000     C          -0.206794           
         C35       1.0000    0.62150   0.45899   0.42452   Biso      1.000     C          0.096317  
         C36       1.0000    0.58850   0.38530   0.45008   Biso      1.000     C          -0.160241           
         C37       1.0000    0.13900   0.97621   0.72791   Biso      1.000     C          0.5602659999999999  
         C38       1.0000    0.38010   0.31800   0.09296   Biso      1.000     C          0.545082  
         C39       1.0000    0.63820   0.37996   0.49900   Biso      1.000     C          0.09463300000000001           
         C40       1.0000    0.72250   0.45119   0.52256   Biso      1.000     C          -0.195408           
         C41       1.0000    0.55860   0.46440   0.37386   Biso      1.000     C          0.07410900000000001           
         C42       1.0000    0.63550   0.50469   0.33680   Biso      1.000     C          -0.144225           
         C43       1.0000    0.57220   0.50894   0.28997   Biso      1.000     C          -0.089818           
         C44       1.0000    0.99680   0.74243   0.10032   Biso      1.000     C          -0.095385           
         C45       1.0000    0.43110   0.47481   0.27905   Biso      1.000     C          -0.011344           
         C46       1.0000    0.35390   0.43595   0.31598   Biso      1.000     C          -0.096304           
         C47       1.0000    0.41660   0.43067   0.36240   Biso      1.000     C          -0.150845           
         C48       1.0000    0.59130   0.30241   0.52530   Biso      1.000     C          0.072503  
         C49       1.0000    0.88010   0.18200   0.40704   Biso      1.000     C          0.545093  
         C50       1.0000    0.63900   0.52379   0.77209   Biso      1.000     C          0.560268  
         C51       1.0000    0.58180   0.91715   0.40130   Biso      1.000     C          0.5623060000000001  
         C52       1.0000    0.52220   0.84116   0.42684   Biso      1.000     C          -0.016817           
         C53       1.0000    0.97780   0.34116   0.92684   Biso      1.000     C          -0.016819999999999998         
         C54       1.0000    0.01200   0.35287   0.97757   Biso      1.000     C          -0.079968           
         C55       1.0000    0.05970   0.18702   0.92351   Biso      1.000     C          -0.151201           
         C56       1.0000    0.47830   0.24375   0.06904   Biso      1.000     C          0.003638  
         C57       1.0000    0.58450   0.25950   0.03370   Biso      1.000     C          -0.08416  
         C58       1.0000    0.67120   0.18993   0.01109   Biso      1.000     C          -0.138693           
         C59       1.0000    0.65250   0.10217   0.02341   Biso      1.000     C          0.073796  
         C60       1.0000    0.54730   0.08693   0.05992   Biso      1.000     C          -0.142735           
         C61       1.0000    0.46120   0.15719   0.08251   Biso      1.000     C          -0.105677           
         C62       1.0000    0.74220   0.02601   0.99759   Biso      1.000     C          0.10304300000000001           
         C63       1.0000    0.79230   0.02904   0.94876   Biso      1.000     C          -0.206794           
         C64       1.0000    0.87850   0.95899   0.92452   Biso      1.000     C          0.096317  
         C65       1.0000    0.91150   0.88530   0.95008   Biso      1.000     C          -0.160241           
         C66       1.0000    0.86180   0.87996   0.99900   Biso      1.000     C          0.09463300000000001           
         C67       1.0000    0.77750   0.95119   0.02256   Biso      1.000     C          -0.195409           
         C68       1.0000    0.94140   0.96440   0.87386   Biso      1.000     C          0.07410900000000001           
         C69       1.0000    0.86450   0.00469   0.83680   Biso      1.000     C          -0.144222           
         C70       1.0000    0.92780   0.00894   0.78997   Biso      1.000     C          -0.089813           
         C71       1.0000    0.06890   0.97481   0.77905   Biso      1.000     C          -0.011348           
         C72       1.0000    0.14610   0.93595   0.81598   Biso      1.000     C          -0.096304           
         C73       1.0000    0.08340   0.93067   0.86240   Biso      1.000     C          -0.150843           
         C74       1.0000    0.90870   0.80241   0.02530   Biso      1.000     C          0.072503  
         C75       1.0000    0.93140   0.71796   0.99858   Biso      1.000     C          -0.140526           
         C76       1.0000    0.94030   0.81298   0.07649   Biso      1.000     C          -0.151199           
         C77       1.0000    0.98800   0.64713   0.02243   Biso      1.000     C          -0.07996900000000001          
         C78       1.0000    0.02220   0.65884   0.07316   Biso      1.000     C          -0.016825           
         C79       1.0000    0.11990   0.81800   0.59296   Biso      1.000     C          0.545093  
         C80       1.0000    0.36100   0.47621   0.22791   Biso      1.000     C          0.560276  
         C81       1.0000    0.41820   0.08285   0.59870   Biso      1.000     C          0.562305  
         C82       1.0000    0.50320   0.24243   0.60032   Biso      1.000     C          -0.09538300000000001          
         C83       1.0000    0.06860   0.28204   0.00142   Biso      1.000     C          -0.140523           
         C84       1.0000    0.09130   0.19759   0.97470   Biso      1.000     C          0.072502  
         C85       1.0000    0.91660   0.06933   0.13760   Biso      1.000     C          -0.150848           
         C86       1.0000    0.85390   0.06405   0.18402   Biso      1.000     C          -0.096305           
         C87       1.0000    0.93110   0.02519   0.22095   Biso      1.000     C          -0.011348           
         C88       1.0000    0.07220   0.99106   0.21003   Biso      1.000     C          -0.08982000000000001          
         C89       1.0000    0.13550   0.99531   0.16320   Biso      1.000     C          -0.144222           
         C90       1.0000    0.05860   0.03560   0.12614   Biso      1.000     C          0.07411000000000001           
         C91       1.0000    0.22250   0.04881   0.97744   Biso      1.000     C          -0.195408           
         C92       1.0000    0.13820   0.12004   0.00100   Biso      1.000     C          0.094635  
         C93       1.0000    0.08850   0.11470   0.04992   Biso      1.000     C          -0.160241           
         C94       1.0000    0.91550   0.75950   0.53370   Biso      1.000     C          -0.084163           
         C95       1.0000    0.12150   0.04101   0.07548   Biso      1.000     C          0.096317  
         C96       1.0000    0.25780   0.97399   0.00241   Biso      1.000     C          0.10304200000000001           
         C97       1.0000    0.53880   0.84281   0.91749   Biso      1.000     C          -0.105679           
         C98       1.0000    0.45270   0.91307   0.94008   Biso      1.000     C          -0.142735           
         C99       1.0000    0.34750   0.89783   0.97659   Biso      1.000     C          0.073796  
         C100      1.0000    0.32880   0.81007   0.98891   Biso      1.000     C          -0.138694           
         C101      1.0000    0.41550   0.74050   0.96630   Biso      1.000     C          -0.084162           
         C102      1.0000    0.52170   0.75625   0.93096   Biso      1.000     C          0.0036420000000000003         
         C103      1.0000    0.56860   0.21796   0.49858   Biso      1.000     C          -0.140526           
         C104      1.0000    0.55970   0.31298   0.57649   Biso      1.000     C          -0.1512   
         C105      1.0000    0.51200   0.14713   0.52243   Biso      1.000     C          -0.079968           
         C106      1.0000    0.47780   0.15884   0.57316   Biso      1.000     C          -0.016818           
         C107      1.0000    0.20770   0.97096   0.05124   Biso      1.000     C          -0.206794           
         C108      1.0000    0.02170   0.74375   0.56904   Biso      1.000     C          0.0036439999999999997         
         Cd1       1.0000    0.81224   0.55884   0.85852   Biso      1.000     Cd          0.991865  
         Cd2       1.0000    0.68776   0.05884   0.35852   Biso      1.000     Cd          0.991864  
         Cd3       1.0000    0.18776   0.44116   0.14149   Biso      1.000     Cd          0.9918870000000001  
         Cd4       1.0000    0.31224   0.94116   0.64148   Biso      1.000     Cd          0.991865  
         H1        1.0000    0.25750   0.79820   0.01250   Biso      1.000     H          0.116926  
         H2        1.0000    0.46520   0.97090   0.93080   Biso      1.000     H          0.11759700000000001           
         H3        1.0000    0.60840   0.85380   0.89320   Biso      1.000     H          0.119349  
         H4        1.0000    0.62520   0.53510   0.26550   Biso      1.000     H          0.1258    
         H5        1.0000    0.23160   0.92160   0.06820   Biso      1.000     H          0.12191500000000001           
         H6        1.0000    0.03190   0.16160   0.06580   Biso      1.000     H          0.12259400000000001           
         H7        1.0000    0.25560   0.05120   0.94470   Biso      1.000     H          0.123721  
         H8        1.0000    0.51780   0.74910   0.36550   Biso      1.000     H          0.124508  
         H9        1.0000    0.50300   0.90880   0.49590   Biso      1.000     H          0.125527  
         H10       1.0000    0.42320   0.63160   0.40490   Biso      1.000     H          0.107892  
         H11       1.0000    0.40850   0.79100   0.53550   Biso      1.000     H          0.112444  
         H12       1.0000    0.63680   0.59590   0.61330   Biso      1.000     H          0.109578  
         H13       1.0000    0.74130   0.58680   0.69070   Biso      1.000     H          0.121852  
         H14       1.0000    0.37480   0.46490   0.73450   Biso      1.000     H          0.12579300000000002           
         H15       1.0000    0.24440   0.55120   0.44470   Biso      1.000     H          0.12372000000000001           
         H16       1.0000    0.46810   0.66160   0.56580   Biso      1.000     H          0.122592  
         H17       1.0000    0.26840   0.42160   0.56820   Biso      1.000     H          0.12191600000000001           
         H18       1.0000    0.89160   0.35380   0.39320   Biso      1.000     H          0.11934600000000001           
         H19       1.0000    0.03480   0.47090   0.43080   Biso      1.000     H          0.117595  
         H20       1.0000    0.24250   0.29820   0.51250   Biso      1.000     H          0.116926  
         H21       1.0000    0.09790   0.18230   0.47500   Biso      1.000     H          0.13251300000000002           
         H22       1.0000    0.98220   0.24910   0.86550   Biso      1.000     H          0.12450399999999999           
         H23       1.0000    0.99700   0.40880   0.99590   Biso      1.000     H          0.125527  
         H24       1.0000    0.07680   0.13160   0.90490   Biso      1.000     H          0.107893  
         H25       1.0000    0.09150   0.29100   0.03550   Biso      1.000     H          0.112445  
         H26       1.0000    0.86320   0.09590   0.11330   Biso      1.000     H          0.109578  
         H27       1.0000    0.75870   0.08680   0.19070   Biso      1.000     H          0.12184600000000001           
         H28       1.0000    0.27030   0.47120   0.65640   Biso      1.000     H          0.121299  
         H29       1.0000    0.40210   0.68230   0.97500   Biso      1.000     H          0.132512  
         H30       1.0000    0.25870   0.41320   0.30930   Biso      1.000     H          0.12184600000000001           
         H31       1.0000    0.90210   0.81770   0.52500   Biso      1.000     H          0.13251300000000002           
         H32       1.0000    0.36320   0.40410   0.38670   Biso      1.000     H          0.109578  
         H33       1.0000    0.59150   0.20900   0.46450   Biso      1.000     H          0.112445  
         H34       1.0000    0.57680   0.36840   0.59510   Biso      1.000     H          0.107893  
         H35       1.0000    0.49700   0.09120   0.50410   Biso      1.000     H          0.125528  
         H36       1.0000    0.48220   0.25090   0.63450   Biso      1.000     H          0.12450399999999999           
         H37       1.0000    0.59790   0.31770   0.02500   Biso      1.000     H          0.132512  
         H38       1.0000    0.74250   0.20180   0.98750   Biso      1.000     H          0.116927  
         H39       1.0000    0.53480   0.02910   0.06920   Biso      1.000     H          0.117596  
         H40       1.0000    0.39160   0.14620   0.10680   Biso      1.000     H          0.11934600000000001           
         H41       1.0000    0.76840   0.07840   0.93180   Biso      1.000     H          0.12191600000000001           
         H42       1.0000    0.96810   0.83840   0.93420   Biso      1.000     H          0.122592  
         H43       1.0000    0.74440   0.94880   0.05530   Biso      1.000     H          0.123721  
         H44       1.0000    0.77030   0.02880   0.84360   Biso      1.000     H          0.121297  
         H45       1.0000    0.87480   0.03510   0.76550   Biso      1.000     H          0.12579300000000002           
         H46       1.0000    0.24130   0.91320   0.80930   Biso      1.000     H          0.121852  
         H47       1.0000    0.13680   0.90410   0.88670   Biso      1.000     H          0.109578  
         H48       1.0000    0.90850   0.70900   0.96450   Biso      1.000     H          0.112444  
         H49       1.0000    0.92320   0.86840   0.09510   Biso      1.000     H          0.107892  
         H50       1.0000    0.00300   0.59120   0.00410   Biso      1.000     H          0.125526  
         H51       1.0000    0.01780   0.75090   0.13450   Biso      1.000     H          0.12450499999999999           
         H52       1.0000    0.72970   0.52880   0.34360   Biso      1.000     H          0.121297  
         H53       1.0000    0.75560   0.44880   0.55530   Biso      1.000     H          0.123721  
         H54       1.0000    0.53190   0.33840   0.43420   Biso      1.000     H          0.12259300000000001           
         H55       1.0000    0.73160   0.57840   0.43180   Biso      1.000     H          0.12191500000000001           
         H56       1.0000    0.10840   0.64620   0.60680   Biso      1.000     H          0.119348  
         H57       1.0000    0.96520   0.52910   0.56920   Biso      1.000     H          0.117596  
         H58       1.0000    0.75750   0.70180   0.48750   Biso      1.000     H          0.116926  
         H59       1.0000    0.12520   0.96490   0.23450   Biso      1.000     H          0.125797  
         H60       1.0000    0.22970   0.97120   0.15640   Biso      1.000     H          0.121297  
         O1        1.0000    0.27860   0.29928   0.12168   Biso      1.000     O          -0.5105970000000001           
         O2        1.0000    0.06810   0.00418   0.69363   Biso      1.000     O          -0.461347           
         O3        1.0000    0.40300   0.39818   0.08281   Biso      1.000     O          -0.47891999999999996          
         O4        1.0000    0.38360   0.09502   0.64385   Biso      1.000     O          -0.49561000000000005          
         O5        1.0000    0.23030   0.44594   0.22307   Biso      1.000     O          -0.510401           
         O6        1.0000    0.43190   0.50418   0.19363   Biso      1.000     O          -0.461372           
         O7        1.0000    0.09700   0.89818   0.58281   Biso      1.000     O          -0.478969           
         O8        1.0000    0.22140   0.79928   0.62168   Biso      1.000     O          -0.5105970000000001           
         O9        1.0000    0.26970   0.94594   0.72307   Biso      1.000     O          -0.5103260000000001           
         O10       1.0000    0.40370   0.00658   0.57375   Biso      1.000     O          -0.514089           
         O11       1.0000    0.59630   0.99342   0.42625   Biso      1.000     O          -0.514096           
         O12       1.0000    0.61640   0.90498   0.35615   Biso      1.000     O          -0.49561499999999997          
         O13       1.0000    0.76970   0.55406   0.77693   Biso      1.000     O          -0.510322           
         O14       1.0000    0.56810   0.49582   0.80637   Biso      1.000     O          -0.46135  
         O15       1.0000    0.90300   0.10182   0.41719   Biso      1.000     O          -0.478968           
         O16       1.0000    0.77860   0.20072   0.37832   Biso      1.000     O          -0.5105890000000001           
         O17       1.0000    0.90370   0.49342   0.92625   Biso      1.000     O          -0.514087           
         O18       1.0000    0.88360   0.40498   0.85615   Biso      1.000     O          -0.495609           
         O19       1.0000    0.73030   0.05406   0.27693   Biso      1.000     O          -0.510316           
         O20       1.0000    0.93190   0.99582   0.30637   Biso      1.000     O          -0.46135  
         O21       1.0000    0.59700   0.60182   0.91719   Biso      1.000     O          -0.478969           
         O22       1.0000    0.72140   0.70072   0.87832   Biso      1.000     O          -0.510596           
         O23       1.0000    0.11640   0.59502   0.14385   Biso      1.000     O          -0.495587           
         O24       1.0000    0.09630   0.50658   0.07375   Biso      1.000     O          -0.514046 