
##########################################################################
#               Crystallographic Information Format file
#               Produced by PyCifRW module
#
#  This is a CIF file.  CIF has been adopted by the International
#  Union of Crystallography as the standard for data archiving and
#  transmission.
#
#  For information on this file format, follow the CIF links at
#  http://www.iucr.org
##########################################################################

data_image0

_cell_length_a                          8.986
_cell_length_b                          14.915
_cell_length_c                          26.759
_cell_angle_alpha                       96.272
_cell_angle_beta                        90
_cell_angle_gamma                       90
_symmetry_space_group_name_H-M          'P 1'
_symmetry_int_tables_number             1
loop_
  _symmetry_equiv_pos_as_xyz
         'x, y, z' 
loop_
  _atom_site_label
  _atom_site_occupancy
  _atom_site_fract_x
  _atom_site_fract_y
  _atom_site_fract_z
  _atom_site_thermal_displace_type
  _atom_site_B_iso_or_equiv
  _atom_site_type_symbol
  _atom_site_charge
         C1        1.0000    0.93140   0.71770   0.99860   Biso      1.000     C          -0.138279           
         C2        1.0000    0.42850   0.49130   0.71011   Biso      1.000     C          -0.087571           
         C3        1.0000    0.36440   0.49540   0.66323   Biso      1.000     C          -0.14536  
         C4        1.0000    0.44120   0.53570   0.62608   Biso      1.000     C          0.071546  
         C5        1.0000    0.27720   0.54910   0.47757   Biso      1.000     C          -0.197513           
         C6        1.0000    0.36190   0.62010   0.50097   Biso      1.000     C          0.094648  
         C7        1.0000    0.41200   0.61480   0.55001   Biso      1.000     C          -0.159016           
         C8        1.0000    0.37860   0.54100   0.57540   Biso      1.000     C          0.09559   
         C9        1.0000    0.29260   0.47100   0.55141   Biso      1.000     C          -0.205275           
         C10       1.0000    0.24190   0.47420   0.50248   Biso      1.000     C          0.103349  
         C11       1.0000    0.96120   0.34320   0.41759   Biso      1.000     C          -0.104836           
         C12       1.0000    0.04760   0.41320   0.44009   Biso      1.000     C          -0.143201           
         C13       1.0000    0.15240   0.39820   0.47671   Biso      1.000     C          0.073597  
         C14       1.0000    0.17110   0.31010   0.48902   Biso      1.000     C          -0.137026           
         C15       1.0000    0.08410   0.24020   0.46628   Biso      1.000     C          -0.084126           
         C16       1.0000    0.97800   0.25590   0.43107   Biso      1.000     C          0.002295  
         C17       1.0000    0.63880   0.52330   0.77187   Biso      1.000     C          0.554134  
         C18       1.0000    0.58180   0.91710   0.40118   Biso      1.000     C          0.565208  
         C19       1.0000    0.49680   0.75710   0.39967   Biso      1.000     C          -0.093765           
         C20       1.0000    0.52250   0.84120   0.42673   Biso      1.000     C          -0.017968           
         C21       1.0000    0.48760   0.85270   0.47771   Biso      1.000     C          -0.080319           
         C22       1.0000    0.61970   0.68200   0.90712   Biso      1.000     C          0.548729  
         C23       1.0000    0.05950   0.18650   0.92344   Biso      1.000     C          -0.152186           
         C24       1.0000    0.06860   0.28230   0.00140   Biso      1.000     C          -0.138279           
         C25       1.0000    0.56860   0.52510   0.72085   Biso      1.000     C          -0.009824           
         C26       1.0000    0.09140   0.19770   0.97473   Biso      1.000     C          0.072525  
         C27       1.0000    0.64640   0.56380   0.68423   Biso      1.000     C          -0.097963           
         C28       1.0000    0.40860   0.69770   0.47473   Biso      1.000     C          0.072524  
         C29       1.0000    0.50320   0.24290   0.60033   Biso      1.000     C          -0.093765           
         C30       1.0000    0.41820   0.08290   0.59882   Biso      1.000     C          0.565207  
         C31       1.0000    0.36120   0.47670   0.22813   Biso      1.000     C          0.554135  
         C32       1.0000    0.02200   0.74410   0.56893   Biso      1.000     C          0.002293  
         C33       1.0000    0.91590   0.75980   0.53372   Biso      1.000     C          -0.084123           
         C34       1.0000    0.82890   0.68990   0.51098   Biso      1.000     C          -0.137026           
         C35       1.0000    0.84760   0.60180   0.52329   Biso      1.000     C          0.073597  
         C36       1.0000    0.95240   0.58680   0.55991   Biso      1.000     C          -0.143203           
         C37       1.0000    0.94050   0.81350   0.07656   Biso      1.000     C          -0.152186           
         C38       1.0000    0.38030   0.31800   0.09288   Biso      1.000     C          0.548727  
         C39       1.0000    0.03880   0.65680   0.58241   Biso      1.000     C          -0.104833           
         C40       1.0000    0.75810   0.52580   0.49752   Biso      1.000     C          0.103349  
         C41       1.0000    0.70740   0.52900   0.44859   Biso      1.000     C          -0.205275           
         C42       1.0000    0.62140   0.45900   0.42460   Biso      1.000     C          0.09559   
         C43       1.0000    0.58800   0.38520   0.44999   Biso      1.000     C          -0.159015           
         C44       1.0000    0.90860   0.80230   0.02527   Biso      1.000     C          0.072525  
         C45       1.0000    0.63810   0.37990   0.49903   Biso      1.000     C          0.094648  
         C46       1.0000    0.72280   0.45090   0.52243   Biso      1.000     C          -0.197513           
         C47       1.0000    0.55880   0.46430   0.37392   Biso      1.000     C          0.071546  
         C48       1.0000    0.63560   0.50460   0.33677   Biso      1.000     C          -0.145362           
         C49       1.0000    0.88030   0.18200   0.40712   Biso      1.000     C          0.548732  
         C50       1.0000    0.44050   0.68650   0.42344   Biso      1.000     C          -0.152185           
         C51       1.0000    0.43140   0.78230   0.50140   Biso      1.000     C          -0.138277           
         C52       1.0000    0.58400   0.56950   0.63736   Biso      1.000     C          -0.150825           
         C53       1.0000    0.91600   0.06950   0.13736   Biso      1.000     C          -0.150825           
         C54       1.0000    0.85360   0.06380   0.18423   Biso      1.000     C          -0.097966           
         C55       1.0000    0.93140   0.02510   0.22085   Biso      1.000     C          -0.009825           
         C56       1.0000    0.98760   0.64730   0.02229   Biso      1.000     C          -0.080316           
         C57       1.0000    0.02250   0.65880   0.07327   Biso      1.000     C          -0.017968           
         C58       1.0000    0.99680   0.74290   0.10033   Biso      1.000     C          -0.093765           
         C59       1.0000    0.08180   0.58290   0.09882   Biso      1.000     C          0.565206  
         C60       1.0000    0.13880   0.97670   0.72813   Biso      1.000     C          0.554134  
         C61       1.0000    0.47800   0.24410   0.06893   Biso      1.000     C          0.002292  
         C62       1.0000    0.58410   0.25980   0.03372   Biso      1.000     C          -0.084122           
         C63       1.0000    0.67110   0.18990   0.01098   Biso      1.000     C          -0.137027           
         C64       1.0000    0.65240   0.10180   0.02329   Biso      1.000     C          0.073597  
         C65       1.0000    0.54760   0.08680   0.05991   Biso      1.000     C          -0.143203           
         C66       1.0000    0.46120   0.15680   0.08241   Biso      1.000     C          -0.104833           
         C67       1.0000    0.74190   0.02580   0.99752   Biso      1.000     C          0.103349  
         C68       1.0000    0.79260   0.02900   0.94859   Biso      1.000     C          -0.205274           
         C69       1.0000    0.87860   0.95900   0.92460   Biso      1.000     C          0.09559   
         C70       1.0000    0.91200   0.88520   0.94999   Biso      1.000     C          -0.159016           
         C71       1.0000    0.86190   0.87990   0.99903   Biso      1.000     C          0.094648  
         C72       1.0000    0.77720   0.95090   0.02243   Biso      1.000     C          -0.197514           
         C73       1.0000    0.94120   0.96430   0.87392   Biso      1.000     C          0.071546  
         C74       1.0000    0.86440   0.00460   0.83677   Biso      1.000     C          -0.145361           
         C75       1.0000    0.92850   0.00870   0.78989   Biso      1.000     C          -0.087569           
         C76       1.0000    0.06860   0.97490   0.77915   Biso      1.000     C          -0.009825           
         C77       1.0000    0.14640   0.93620   0.81577   Biso      1.000     C          -0.097962           
         C78       1.0000    0.08400   0.93050   0.86264   Biso      1.000     C          -0.150825           
         C79       1.0000    0.11970   0.81800   0.59288   Biso      1.000     C          0.548729  
         C80       1.0000    0.55950   0.31350   0.57656   Biso      1.000     C          -0.152186           
         C81       1.0000    0.56860   0.21770   0.49860   Biso      1.000     C          -0.138279           
         C82       1.0000    0.59140   0.30230   0.52527   Biso      1.000     C          0.072525  
         C83       1.0000    0.07150   0.99130   0.21011   Biso      1.000     C          -0.087567           
         C84       1.0000    0.13560   0.99540   0.16323   Biso      1.000     C          -0.14536  
         C85       1.0000    0.05880   0.03570   0.12608   Biso      1.000     C          0.071546  
         C86       1.0000    0.22280   0.04910   0.97757   Biso      1.000     C          -0.197514           
         C87       1.0000    0.13810   0.12010   0.00097   Biso      1.000     C          0.094648  
         C88       1.0000    0.08800   0.11480   0.05001   Biso      1.000     C          -0.159016           
         C89       1.0000    0.12140   0.04100   0.07540   Biso      1.000     C          0.09559   
         C90       1.0000    0.20740   0.97100   0.05141   Biso      1.000     C          -0.205274           
         C91       1.0000    0.25810   0.97420   0.00248   Biso      1.000     C          0.103349  
         C92       1.0000    0.53880   0.84320   0.91759   Biso      1.000     C          -0.104836           
         C93       1.0000    0.45240   0.91320   0.94009   Biso      1.000     C          -0.143201           
         C94       1.0000    0.47750   0.15880   0.57327   Biso      1.000     C          -0.017969           
         C95       1.0000    0.34760   0.89820   0.97671   Biso      1.000     C          0.073597  
         C96       1.0000    0.41590   0.74020   0.96628   Biso      1.000     C          -0.084126           
         C97       1.0000    0.52200   0.75590   0.93107   Biso      1.000     C          0.002295  
         C98       1.0000    0.86120   0.02330   0.27187   Biso      1.000     C          0.554139  
         C99       1.0000    0.91820   0.41710   0.90118   Biso      1.000     C          0.565207  
         C100      1.0000    0.00320   0.25710   0.89967   Biso      1.000     C          -0.093765           
         C101      1.0000    0.97750   0.34120   0.92673   Biso      1.000     C          -0.017969           
         C102      1.0000    0.01240   0.35270   0.97771   Biso      1.000     C          -0.080315           
         C103      1.0000    0.57150   0.50870   0.28989   Biso      1.000     C          -0.087569           
         C104      1.0000    0.43140   0.47490   0.27915   Biso      1.000     C          -0.009825           
         C105      1.0000    0.35360   0.43620   0.31577   Biso      1.000     C          -0.097963           
         C106      1.0000    0.41600   0.43050   0.36264   Biso      1.000     C          -0.150825           
         C107      1.0000    0.32890   0.81010   0.98902   Biso      1.000     C          -0.137026           
         C108      1.0000    0.51240   0.14730   0.52229   Biso      1.000     C          -0.080316           
         Cd1       1.0000    0.81228   0.55884   0.85851   Biso      1.000     Cd          0.992438  
         Cd2       1.0000    0.68772   0.05884   0.35851   Biso      1.000     Cd          0.992439  
         Cd3       1.0000    0.18772   0.44116   0.14149   Biso      1.000     Cd          0.992436  
         Cd4       1.0000    0.31228   0.94116   0.64149   Biso      1.000     Cd          0.992436  
         H1        1.0000    0.98220   0.24850   0.86540   Biso      1.000     H          0.123125  
         H2        1.0000    0.40240   0.68200   0.97490   Biso      1.000     H          0.132212  
         H3        1.0000    0.25760   0.79820   0.01260   Biso      1.000     H          0.116012  
         H4        1.0000    0.75620   0.44830   0.55510   Biso      1.000     H          0.123327  
         H5        1.0000    0.46440   0.97100   0.93070   Biso      1.000     H          0.117444  
         H6        1.0000    0.60850   0.85430   0.89330   Biso      1.000     H          0.119022  
         H7        1.0000    0.23090   0.92160   0.06830   Biso      1.000     H          0.122745  
         H8        1.0000    0.42370   0.63090   0.40500   Biso      1.000     H          0.10924   
         H9        1.0000    0.40840   0.79130   0.53550   Biso      1.000     H          0.112384  
         H10       1.0000    0.63760   0.59600   0.61310   Biso      1.000     H          0.109608  
         H11       1.0000    0.74160   0.58640   0.69110   Biso      1.000     H          0.122089  
         H12       1.0000    0.37570   0.46520   0.73470   Biso      1.000     H          0.124533  
         H13       1.0000    0.27020   0.47120   0.65650   Biso      1.000     H          0.121499  
         H14       1.0000    0.24380   0.55170   0.44490   Biso      1.000     H          0.123327  
         H15       1.0000    0.26910   0.42160   0.56830   Biso      1.000     H          0.122745  
         H16       1.0000    0.89150   0.35430   0.39330   Biso      1.000     H          0.119022  
         H17       1.0000    0.03560   0.47100   0.43070   Biso      1.000     H          0.117444  
         H18       1.0000    0.24240   0.29820   0.51260   Biso      1.000     H          0.116012  
         H19       1.0000    0.09760   0.18200   0.47490   Biso      1.000     H          0.132212  
         H20       1.0000    0.51780   0.74850   0.36540   Biso      1.000     H          0.123125  
         H21       1.0000    0.50240   0.90860   0.49610   Biso      1.000     H          0.125675  
         H22       1.0000    0.07630   0.13090   0.90500   Biso      1.000     H          0.10924   
         H23       1.0000    0.09160   0.29130   0.03550   Biso      1.000     H          0.112384  
         H24       1.0000    0.86240   0.09600   0.11310   Biso      1.000     H          0.109608  
         H25       1.0000    0.75840   0.08640   0.19110   Biso      1.000     H          0.122089  
         H26       1.0000    0.12430   0.96520   0.23470   Biso      1.000     H          0.124534  
         H27       1.0000    0.22980   0.97120   0.15650   Biso      1.000     H          0.1215    
         H28       1.0000    0.46870   0.66170   0.56590   Biso      1.000     H          0.122974  
         H29       1.0000    0.99760   0.40860   0.99610   Biso      1.000     H          0.125675  
         H30       1.0000    0.72980   0.52880   0.34350   Biso      1.000     H          0.121499  
         H31       1.0000    0.49760   0.09140   0.50390   Biso      1.000     H          0.125675  
         H32       1.0000    0.62430   0.53480   0.26530   Biso      1.000     H          0.124532  
         H33       1.0000    0.25840   0.41360   0.30890   Biso      1.000     H          0.122089  
         H34       1.0000    0.36240   0.40400   0.38690   Biso      1.000     H          0.109608  
         H35       1.0000    0.59160   0.20870   0.46450   Biso      1.000     H          0.112385  
         H36       1.0000    0.57630   0.36910   0.59500   Biso      1.000     H          0.10924   
         H37       1.0000    0.00240   0.59140   0.00390   Biso      1.000     H          0.125675  
         H38       1.0000    0.01780   0.75150   0.13460   Biso      1.000     H          0.123125  
         H39       1.0000    0.59760   0.31800   0.02510   Biso      1.000     H          0.132212  
         H40       1.0000    0.74240   0.20180   0.98740   Biso      1.000     H          0.116012  
         H41       1.0000    0.53560   0.02900   0.06930   Biso      1.000     H          0.117444  
         H42       1.0000    0.39150   0.14570   0.10670   Biso      1.000     H          0.119022  
         H43       1.0000    0.76910   0.07840   0.93170   Biso      1.000     H          0.122745  
         H44       1.0000    0.96870   0.83830   0.93410   Biso      1.000     H          0.122974  
         H45       1.0000    0.74380   0.94830   0.05510   Biso      1.000     H          0.123327  
         H46       1.0000    0.77020   0.02880   0.84350   Biso      1.000     H          0.121499  
         H47       1.0000    0.87570   0.03480   0.76530   Biso      1.000     H          0.124531  
         H48       1.0000    0.24160   0.91360   0.80890   Biso      1.000     H          0.12209   
         H49       1.0000    0.13760   0.90400   0.88690   Biso      1.000     H          0.109608  
         H50       1.0000    0.90840   0.70870   0.96450   Biso      1.000     H          0.112384  
         H51       1.0000    0.92370   0.86910   0.09500   Biso      1.000     H          0.10924   
         H52       1.0000    0.53130   0.33830   0.43410   Biso      1.000     H          0.122974  
         H53       1.0000    0.73090   0.57840   0.43170   Biso      1.000     H          0.122745  
         H54       1.0000    0.10850   0.64570   0.60670   Biso      1.000     H          0.119022  
         H55       1.0000    0.96440   0.52900   0.56930   Biso      1.000     H          0.117444  
         H56       1.0000    0.75760   0.70180   0.48740   Biso      1.000     H          0.116012  
         H57       1.0000    0.90240   0.81800   0.52510   Biso      1.000     H          0.132212  
         H58       1.0000    0.48220   0.25150   0.63460   Biso      1.000     H          0.123125  
         H59       1.0000    0.25620   0.05170   0.94490   Biso      1.000     H          0.123327  
         H60       1.0000    0.03130   0.16170   0.06590   Biso      1.000     H          0.122975  
         O1        1.0000    0.06740   0.00470   0.69345   Biso      1.000     O          -0.460644           
         O2        1.0000    0.11580   0.59463   0.14380   Biso      1.000     O          -0.495956           
         O3        1.0000    0.26960   0.94600   0.72324   Biso      1.000     O          -0.506907           
         O4        1.0000    0.22150   0.79955   0.62171   Biso      1.000     O          -0.513315           
         O5        1.0000    0.40340   0.00677   0.57367   Biso      1.000     O          -0.516744           
         O6        1.0000    0.38420   0.09463   0.64380   Biso      1.000     O          -0.495956           
         O7        1.0000    0.23040   0.44600   0.22324   Biso      1.000     O          -0.506903           
         O8        1.0000    0.43260   0.50470   0.19345   Biso      1.000     O          -0.460649           
         O9        1.0000    0.09660   0.50677   0.07367   Biso      1.000     O          -0.516746           
         O10       1.0000    0.09740   0.89780   0.58280   Biso      1.000     O          -0.477329           
         O11       1.0000    0.90260   0.10220   0.41720   Biso      1.000     O          -0.477333           
         O12       1.0000    0.77850   0.20045   0.37829   Biso      1.000     O          -0.513316           
         O13       1.0000    0.59660   0.99323   0.42633   Biso      1.000     O          -0.516747           
         O14       1.0000    0.61580   0.90537   0.35620   Biso      1.000     O          -0.495959           
         O15       1.0000    0.76960   0.55400   0.77676   Biso      1.000     O          -0.506904           
         O16       1.0000    0.56740   0.49530   0.80655   Biso      1.000     O          -0.460649           
         O17       1.0000    0.59740   0.60220   0.91720   Biso      1.000     O          -0.47733  
         O18       1.0000    0.72150   0.70045   0.87829   Biso      1.000     O          -0.513312           
         O19       1.0000    0.90340   0.49323   0.92633   Biso      1.000     O          -0.516746           
         O20       1.0000    0.88420   0.40537   0.85620   Biso      1.000     O          -0.495957           
         O21       1.0000    0.73040   0.05400   0.27676   Biso      1.000     O          -0.506907           
         O22       1.0000    0.93260   0.99530   0.30655   Biso      1.000     O          -0.460649           
         O23       1.0000    0.27850   0.29955   0.12171   Biso      1.000     O          -0.513312           
         O24       1.0000    0.40260   0.39780   0.08280   Biso      1.000     O          -0.477328 