
##########################################################################
#               Crystallographic Information Format file
#               Produced by PyCifRW module
#
#  This is a CIF file.  CIF has been adopted by the International
#  Union of Crystallography as the standard for data archiving and
#  transmission.
#
#  For information on this file format, follow the CIF links at
#  http://www.iucr.org
##########################################################################

data_image0

_cell_length_a                          10.7574
_cell_length_b                          15.8135
_cell_length_c                          17.4957
_cell_angle_alpha                       114.107
_cell_angle_beta                        104.093
_cell_angle_gamma                       98.132
_symmetry_space_group_name_H-M          'P 1'
_symmetry_int_tables_number             1
loop_
  _symmetry_equiv_pos_as_xyz
         'x, y, z' 
loop_
  _atom_site_label
  _atom_site_occupancy
  _atom_site_fract_x
  _atom_site_fract_y
  _atom_site_fract_z
  _atom_site_thermal_displace_type
  _atom_site_B_iso_or_equiv
  _atom_site_type_symbol
  _atom_site_charge
         C1        1.0000    0.64821   0.83091   0.87202   Biso      1.000     C          -0.144471           
         C2        1.0000    0.46267   0.93907   0.22194   Biso      1.000     C          -0.015632           
         C3        1.0000    0.52446   0.92516   0.15772   Biso      1.000     C          -0.094535           
         C4        1.0000    0.46474   0.93024   0.08108   Biso      1.000     C          -0.145663           
         C5        1.0000    0.34148   0.94998   0.06496   Biso      1.000     C          0.079955  
         C6        1.0000    0.25558   0.07788   0.49056   Biso      1.000     C          0.577493  
         C7        1.0000    0.72172   0.63292   0.69084   Biso      1.000     C          0.590444  
         C8        1.0000    0.93014   0.04684   0.32428   Biso      1.000     C          -0.131249           
         C9        1.0000    0.02087   0.05087   0.39874   Biso      1.000     C          -0.075504           
         C10       1.0000    0.15667   0.07607   0.41354   Biso      1.000     C          -0.035209           
         C11       1.0000    0.20025   0.09895   0.35470   Biso      1.000     C          -0.090533           
         C12       1.0000    0.33644   0.95264   0.20408   Biso      1.000     C          -0.090371           
         C13       1.0000    0.11048   0.09558   0.28036   Biso      1.000     C          -0.157272           
         C14       1.0000    0.87989   0.05909   0.18118   Biso      1.000     C          0.045235  
         C15       1.0000    0.87143   0.98493   0.09926   Biso      1.000     C          -0.194386           
         C16       1.0000    0.79204   0.97294   0.01748   Biso      1.000     C          0.032863  
         C17       1.0000    0.27828   0.36708   0.30916   Biso      1.000     C          0.590436  
         C18       1.0000    0.63236   0.74856   0.79592   Biso      1.000     C          -0.088071           
         C19       1.0000    0.74073   0.71713   0.77806   Biso      1.000     C          -0.017695           
         C20       1.0000    0.86674   0.76744   0.84228   Biso      1.000     C          -0.095501           
         C21       1.0000    0.88366   0.84916   0.91892   Biso      1.000     C          -0.145167           
         C22       1.0000    0.77652   0.88502   0.93504   Biso      1.000     C          0.080699  
         C23       1.0000    0.73498   0.41268   0.49056   Biso      1.000     C          0.580904  
         C24       1.0000    0.97375   0.06755   0.26450   Biso      1.000     C          0.084378  
         C25       1.0000    0.46912   0.05792   0.69084   Biso      1.000     C          0.590449  
         C26       1.0000    0.27619   0.95889   0.12798   Biso      1.000     C          -0.140593           
         C27       1.0000    0.27217   0.88567   0.90074   Biso      1.000     C          -0.193583           
         C28       1.0000    0.84333   0.92393   0.58646   Biso      1.000     C          -0.035208           
         C29       1.0000    0.79975   0.90105   0.64530   Biso      1.000     C          -0.090532           
         C30       1.0000    0.88952   0.90442   0.71964   Biso      1.000     C          -0.157271           
         C31       1.0000    0.02625   0.93245   0.73550   Biso      1.000     C          0.084374  
         C32       1.0000    0.12011   0.94091   0.81882   Biso      1.000     C          0.045237  
         C33       1.0000    0.12857   0.01507   0.90074   Biso      1.000     C          -0.194385           
         C34       1.0000    0.20796   0.02706   0.98252   Biso      1.000     C          0.032866  
         C35       1.0000    0.35179   0.16909   0.12798   Biso      1.000     C          -0.144471           
         C36       1.0000    0.36764   0.25144   0.20408   Biso      1.000     C          -0.088075           
         C37       1.0000    0.25927   0.28287   0.22194   Biso      1.000     C          -0.017689           
         C38       1.0000    0.27456   0.95546   0.98252   Biso      1.000     C          0.030269  
         C39       1.0000    0.13326   0.23256   0.15772   Biso      1.000     C          -0.095503           
         C40       1.0000    0.22348   0.11498   0.06496   Biso      1.000     C          0.080699  
         C41       1.0000    0.26502   0.58732   0.50944   Biso      1.000     C          0.5809    
         C42       1.0000    0.53088   0.94208   0.30916   Biso      1.000     C          0.590453  
         C43       1.0000    0.10586   0.72256   0.67572   Biso      1.000     C          -0.133988           
         C44       1.0000    0.12213   0.65213   0.60126   Biso      1.000     C          -0.07265  
         C45       1.0000    0.24313   0.66253   0.58646   Biso      1.000     C          -0.03529  
         C46       1.0000    0.34555   0.74425   0.64530   Biso      1.000     C          -0.09317  
         C47       1.0000    0.33012   0.81522   0.71964   Biso      1.000     C          -0.154965           
         C48       1.0000    0.20925   0.80305   0.73550   Biso      1.000     C          0.084952  
         C49       1.0000    0.19871   0.87791   0.81882   Biso      1.000     C          0.050065  
         C50       1.0000    0.11634   0.15084   0.08108   Biso      1.000     C          -0.145168           
         C51       1.0000    0.89414   0.27744   0.32428   Biso      1.000     C          -0.133986           
         C52       1.0000    0.87787   0.34787   0.39874   Biso      1.000     C          -0.07265  
         C53       1.0000    0.75687   0.33747   0.41354   Biso      1.000     C          -0.035294           
         C54       1.0000    0.74442   0.92212   0.50944   Biso      1.000     C          0.577495  
         C55       1.0000    0.97913   0.94913   0.60126   Biso      1.000     C          -0.075504           
         C56       1.0000    0.65852   0.05002   0.93504   Biso      1.000     C          0.079955  
         C57       1.0000    0.53526   0.06976   0.91892   Biso      1.000     C          -0.14567  
         C58       1.0000    0.47554   0.07484   0.84228   Biso      1.000     C          -0.094532           
         C59       1.0000    0.53733   0.06093   0.77806   Biso      1.000     C          -0.01563  
         C60       1.0000    0.66356   0.04736   0.79592   Biso      1.000     C          -0.090374           
         C61       1.0000    0.06986   0.95316   0.67572   Biso      1.000     C          -0.131244           
         C62       1.0000    0.72544   0.04454   0.01748   Biso      1.000     C          0.030268  
         C63       1.0000    0.72783   0.11433   0.09926   Biso      1.000     C          -0.193583           
         C64       1.0000    0.80129   0.12209   0.18118   Biso      1.000     C          0.050064  
         C65       1.0000    0.79075   0.19695   0.26450   Biso      1.000     C          0.084952  
         C66       1.0000    0.65445   0.25575   0.35470   Biso      1.000     C          -0.093168           
         C67       1.0000    0.66988   0.18478   0.28036   Biso      1.000     C          -0.154967           
         C68       1.0000    0.72381   0.04111   0.87202   Biso      1.000     C          -0.140595           
         H1        1.0000    0.14200   0.11220   0.24080   Biso      1.000     H          0.109202  
         H2        1.0000    0.92230   0.94050   0.09940   Biso      1.000     H          0.12585   
         H3        1.0000    0.57230   0.85150   0.88220   Biso      1.000     H          0.109103  
         H4        1.0000    0.54530   0.71270   0.75500   Biso      1.000     H          0.117414  
         H5        1.0000    0.94180   0.74500   0.83300   Biso      1.000     H          0.119281  
         H6        1.0000    0.97020   0.88170   0.96180   Biso      1.000     H          0.108985  
         H7        1.0000    0.57190   0.24770   0.36500   Biso      1.000     H          0.117187  
         H8        1.0000    0.94990   0.40310   0.43940   Biso      1.000     H          0.121864  
         H9        1.0000    0.59880   0.12860   0.24080   Biso      1.000     H          0.108185  
         H10       1.0000    0.67710   0.15890   0.09940   Biso      1.000     H          0.125056  
         H11       1.0000    0.80990   0.03070   0.88220   Biso      1.000     H          0.106597  
         H12       1.0000    0.70970   0.04230   0.75500   Biso      1.000     H          0.118682  
         H13       1.0000    0.39120   0.08800   0.83300   Biso      1.000     H          0.117505  
         H14       1.0000    0.49160   0.08010   0.96180   Biso      1.000     H          0.110031  
         H15       1.0000    0.97730   0.28520   0.31480   Biso      1.000     H          0.120793  
         H16       1.0000    0.29310   0.11730   0.36500   Biso      1.000     H          0.115967  
         H17       1.0000    0.50840   0.91990   0.03820   Biso      1.000     H          0.110032  
         H18       1.0000    0.83750   0.02960   0.31480   Biso      1.000     H          0.120258  
         H19       1.0000    0.16250   0.97040   0.68520   Biso      1.000     H          0.120258  
         H20       1.0000    0.01050   0.96370   0.56060   Biso      1.000     H          0.123235  
         H21       1.0000    0.70690   0.88270   0.63500   Biso      1.000     H          0.115967  
         H22       1.0000    0.85800   0.88780   0.75920   Biso      1.000     H          0.109202  
         H23       1.0000    0.07770   0.05950   0.90060   Biso      1.000     H          0.125851  
         H24       1.0000    0.42770   0.14850   0.11780   Biso      1.000     H          0.109103  
         H25       1.0000    0.45470   0.28730   0.24500   Biso      1.000     H          0.117414  
         H26       1.0000    0.98950   0.03630   0.43940   Biso      1.000     H          0.123236  
         H27       1.0000    0.05820   0.25500   0.16700   Biso      1.000     H          0.119282  
         H28       1.0000    0.02270   0.71480   0.68520   Biso      1.000     H          0.120794  
         H29       1.0000    0.05010   0.59690   0.56060   Biso      1.000     H          0.121866  
         H30       1.0000    0.42810   0.75230   0.63500   Biso      1.000     H          0.117188  
         H31       1.0000    0.32290   0.84110   0.90060   Biso      1.000     H          0.125056  
         H32       1.0000    0.19010   0.96930   0.11780   Biso      1.000     H          0.106598  
         H33       1.0000    0.29030   0.95770   0.24500   Biso      1.000     H          0.118682  
         H34       1.0000    0.60880   0.91200   0.16700   Biso      1.000     H          0.117507  
         H35       1.0000    0.02980   0.11830   0.03820   Biso      1.000     H          0.108986  
         H36       1.0000    0.40120   0.87140   0.75920   Biso      1.000     H          0.108186  
         Mg1       1.0000    0.50000   0.00000   0.50000   Biso      1.000     Mg          1.498925  
         Mg2       1.0000    0.50000   0.50000   0.50000   Biso      1.000     Mg          1.498346  
         O1        1.0000    0.17469   0.39529   0.31658   Biso      1.000     O          -0.36121  
         O2        1.0000    0.38984   0.40254   0.36728   Biso      1.000     O          -0.671031           
         O3        1.0000    0.16026   0.51696   0.45212   Biso      1.000     O          -0.351924           
         O4        1.0000    0.37747   0.59177   0.50354   Biso      1.000     O          -0.65511  
         O5        1.0000    0.64189   0.92129   0.31658   Biso      1.000     O          -0.361031           
         O6        1.0000    0.47744   0.96474   0.36728   Biso      1.000     O          -0.672498           
         O7        1.0000    0.62607   0.91177   0.50354   Biso      1.000     O          -0.653557           
         O8        1.0000    0.20814   0.06484   0.54788   Biso      1.000     O          -0.349668           
         O9        1.0000    0.82531   0.60471   0.68342   Biso      1.000     O          -0.361216           
         O10       1.0000    0.61016   0.59746   0.63272   Biso      1.000     O          -0.671028           
         O11       1.0000    0.83974   0.48304   0.54788   Biso      1.000     O          -0.351928           
         O12       1.0000    0.62253   0.40823   0.49646   Biso      1.000     O          -0.655106           
         O13       1.0000    0.35811   0.07871   0.68342   Biso      1.000     O          -0.361031           
         O14       1.0000    0.52256   0.03526   0.63272   Biso      1.000     O          -0.672505           
         O15       1.0000    0.37393   0.08823   0.49646   Biso      1.000     O          -0.653559           
         O16       1.0000    0.79186   0.93516   0.45212   Biso      1.000     O          -0.349677 