
##########################################################################
#               Crystallographic Information Format file
#               Produced by PyCifRW module
#
#  This is a CIF file.  CIF has been adopted by the International
#  Union of Crystallography as the standard for data archiving and
#  transmission.
#
#  For information on this file format, follow the CIF links at
#  http://www.iucr.org
##########################################################################

data_image0

_cell_length_a                          7.4595
_cell_length_b                          11.474
_cell_length_c                          16.4767
_cell_angle_alpha                       98.9511
_cell_angle_beta                        90.9863
_cell_angle_gamma                       91.3109
_symmetry_space_group_name_H-M          'P 1'
_symmetry_int_tables_number             1
loop_
  _symmetry_equiv_pos_as_xyz
         'x, y, z' 
loop_
  _atom_site_label
  _atom_site_occupancy
  _atom_site_fract_x
  _atom_site_fract_y
  _atom_site_fract_z
  _atom_site_thermal_displace_type
  _atom_site_B_iso_or_equiv
  _atom_site_type_symbol
  _atom_site_charge
         C1        1.0000    0.62020   0.31280   0.33420   Biso      1.000     C          0.09692   
         C2        1.0000    0.87700   0.85410   0.41900   Biso      1.000     C          -0.079691           
         C3        1.0000    0.78400   0.80330   0.47790   Biso      1.000     C          0.198622  
         C4        1.0000    0.81910   0.69270   0.50460   Biso      1.000     C          -0.191668           
         C5        1.0000    0.69470   0.67440   0.56080   Biso      1.000     C          -0.185251           
         C6        1.0000    0.57680   0.77200   0.56940   Biso      1.000     C          0.19174000000000002           
         C7        1.0000    0.08250   0.70130   0.95680   Biso      1.000     C          0.530979  
         C8        1.0000    0.49520   0.40030   0.12990   Biso      1.000     C          0.629216  
         C9        1.0000    0.83580   0.96290   0.39460   Biso      1.000     C          0.193504  
         C10       1.0000    0.53750   0.31590   0.25850   Biso      1.000     C          -0.154315           
         C11       1.0000    0.71970   0.48510   0.23970   Biso      1.000     C          -0.098825           
         C12       1.0000    0.80070   0.48380   0.31580   Biso      1.000     C          -0.079149           
         C13       1.0000    0.75190   0.39860   0.36290   Biso      1.000     C          -0.139909           
         C14       1.0000    0.91090   0.37030   0.84400   Biso      1.000     C          0.662808  
         C15       1.0000    0.00230   0.25370   0.71000   Biso      1.000     C          -0.160388           
         C16       1.0000    0.87480   0.32290   0.75440   Biso      1.000     C          -0.0306   
         C17       1.0000    0.69180   0.31180   0.63170   Biso      1.000     C          -0.080709           
         C18       1.0000    0.58750   0.40090   0.21120   Biso      1.000     C          -0.024687999999999998         
         C19       1.0000    0.81970   0.24330   0.58710   Biso      1.000     C          -0.138631           
         C20       1.0000    0.94400   0.02110   0.33970   Biso      1.000     C          -0.17869200000000002          
         C21       1.0000    0.70140   0.12530   0.37830   Biso      1.000     C          0.188112  
         C22       1.0000    0.91750   0.29870   0.04320   Biso      1.000     C          0.530979  
         C23       1.0000    0.50480   0.59970   0.87010   Biso      1.000     C          0.629216  
         C24       1.0000    0.46250   0.68410   0.74150   Biso      1.000     C          -0.154317           
         C25       1.0000    0.41250   0.59910   0.78880   Biso      1.000     C          -0.02469  
         C26       1.0000    0.28030   0.51490   0.76030   Biso      1.000     C          -0.098824           
         C27       1.0000    0.19930   0.51620   0.68420   Biso      1.000     C          -0.079149           
         C28       1.0000    0.24810   0.60140   0.63710   Biso      1.000     C          -0.139909           
         C29       1.0000    0.86110   0.12050   0.32960   Biso      1.000     C          -0.190605           
         C30       1.0000    0.37980   0.68720   0.66580   Biso      1.000     C          0.09692100000000001           
         C31       1.0000    0.99770   0.74630   0.29000   Biso      1.000     C          -0.160388           
         C32       1.0000    0.12520   0.67710   0.24560   Biso      1.000     C          -0.0306   
         C33       1.0000    0.28040   0.64890   0.28550   Biso      1.000     C          -0.104528           
         C34       1.0000    0.30820   0.68820   0.36830   Biso      1.000     C          -0.080709           
         C35       1.0000    0.18030   0.75670   0.41290   Biso      1.000     C          -0.138631           
         C36       1.0000    0.02250   0.78510   0.37380   Biso      1.000     C          0.088939  
         C37       1.0000    0.42250   0.78340   0.61690   Biso      1.000     C          -0.08924299999999999          
         C38       1.0000    0.08910   0.62970   0.15600   Biso      1.000     C          0.662808  
         C39       1.0000    0.97750   0.21490   0.62620   Biso      1.000     C          0.088939  
         C40       1.0000    0.71960   0.35110   0.71450   Biso      1.000     C          -0.104528           
         C41       1.0000    0.29860   0.87470   0.62170   Biso      1.000     C          0.188112  
         C42       1.0000    0.42320   0.22800   0.43060   Biso      1.000     C          0.191741  
         C43       1.0000    0.30530   0.32560   0.43920   Biso      1.000     C          -0.18526199999999998          
         C44       1.0000    0.18090   0.30730   0.49540   Biso      1.000     C          -0.191656           
         C45       1.0000    0.21600   0.19670   0.52210   Biso      1.000     C          0.198621  
         C46       1.0000    0.57750   0.21660   0.38310   Biso      1.000     C          -0.089242           
         C47       1.0000    0.16420   0.03710   0.60540   Biso      1.000     C          0.193504  
         C48       1.0000    0.05600   0.97890   0.66030   Biso      1.000     C          -0.17869200000000002          
         C49       1.0000    0.13890   0.87950   0.67040   Biso      1.000     C          -0.190605           
         C50       1.0000    0.12300   0.14590   0.58100   Biso      1.000     C          -0.07969  
         H1        1.0000    0.44570   0.25920   0.23890   Biso      1.000     H          0.134354  
         H2        1.0000    0.75430   0.54310   0.20720   Biso      1.000     H          0.106761  
         H3        1.0000    0.89040   0.54180   0.33590   Biso      1.000     H          0.099511  
         H4        1.0000    0.80840   0.39840   0.41500   Biso      1.000     H          0.11124500000000001           
         H5        1.0000    0.10720   0.23290   0.73740   Biso      1.000     H          0.12589   
         H6        1.0000    0.63210   0.39780   0.74440   Biso      1.000     H          0.110456  
         H7        1.0000    0.79980   0.21580   0.53020   Biso      1.000     H          0.107897  
         H8        1.0000    0.40930   0.08240   0.48510   Biso      1.000     H          0.290894  
         H9        1.0000    0.10010   0.82310   0.70330   Biso      1.000     H          0.13181199999999998           
         H10       1.0000    0.19120   0.73700   0.94240   Biso      1.000     H          0.036611000000000005          
         H11       1.0000    0.31280   0.39130   0.41070   Biso      1.000     H          0.136915  
         H12       1.0000    0.08690   0.35880   0.51380   Biso      1.000     H          0.13184300000000002           
         H13       1.0000    0.58540   0.33140   0.60490   Biso      1.000     H          0.10722000000000001           
         H14       1.0000    0.94690   0.00600   0.68450   Biso      1.000     H          0.136006  
         H15       1.0000    0.91310   0.64120   0.48620   Biso      1.000     H          0.13184400000000002           
         H16       1.0000    0.05310   0.99400   0.31550   Biso      1.000     H          0.136006  
         H17       1.0000    0.68720   0.60870   0.58930   Biso      1.000     H          0.136914  
         H18       1.0000    0.55430   0.74080   0.76110   Biso      1.000     H          0.134354  
         H19       1.0000    0.24570   0.45690   0.79280   Biso      1.000     H          0.106761  
         H20       1.0000    0.10960   0.45820   0.66410   Biso      1.000     H          0.099511  
         H21       1.0000    0.19160   0.60160   0.58500   Biso      1.000     H          0.111246  
         H22       1.0000    0.80880   0.26300   0.05760   Biso      1.000     H          0.036611000000000005          
         H23       1.0000    0.36790   0.60220   0.25560   Biso      1.000     H          0.110456  
         H24       1.0000    0.41460   0.66860   0.39510   Biso      1.000     H          0.10722000000000001           
         H25       1.0000    0.20020   0.78420   0.46980   Biso      1.000     H          0.107897  
         H26       1.0000    0.59070   0.91760   0.51490   Biso      1.000     H          0.290894  
         H27       1.0000    0.89990   0.17690   0.29670   Biso      1.000     H          0.13181099999999998           
         H28       1.0000    0.89280   0.76710   0.26260   Biso      1.000     H          0.12589   
         N1        1.0000    0.36190   0.15070   0.48057   Biso      1.000     N          -0.303266           
         N2        1.0000    0.31020   0.97100   0.58218   Biso      1.000     N          -0.428505           
         N3        1.0000    0.63810   0.84930   0.51943   Biso      1.000     N          -0.303266           
         N4        1.0000    0.68980   0.02900   0.41782   Biso      1.000     N          -0.428505           
         O1        1.0000    0.45040   0.53100   0.91934   Biso      1.000     O          -0.789111           
         O2        1.0000    0.07510   0.58980   0.95257   Biso      1.000     O          -0.728954           
         O3        1.0000    0.63820   0.66710   0.88820   Biso      1.000     O          -0.605344           
         O4        1.0000    0.93690   0.65110   0.12642   Biso      1.000     O          -0.68329  
         O5        1.0000    0.21130   0.57400   0.11698   Biso      1.000     O          -0.657895           
         O6        1.0000    0.95660   0.76570   0.97840   Biso      1.000     O          -0.535153           
         O7        1.0000    0.92490   0.41020   0.04743   Biso      1.000     O          -0.728954           
         O8        1.0000    0.54960   0.46900   0.08066   Biso      1.000     O          -0.789111           
         O9        1.0000    0.06310   0.34890   0.87358   Biso      1.000     O          -0.68329  
         O10       1.0000    0.78870   0.42600   0.88302   Biso      1.000     O          -0.657895           
         O11       1.0000    0.04340   0.23430   0.02160   Biso      1.000     O          -0.535153           
         O12       1.0000    0.36180   0.33290   0.11180   Biso      1.000     O          -0.605344           
         Pr1       1.0000    0.24085   0.42356   0.99505   Biso      1.000     Pr          2.110154  
         Pr2       1.0000    0.75915   0.57644   0.00495   Biso      1.000     Pr          2.110154 