
##########################################################################
#               Crystallographic Information Format file
#               Produced by PyCifRW module
#
#  This is a CIF file.  CIF has been adopted by the International
#  Union of Crystallography as the standard for data archiving and
#  transmission.
#
#  For information on this file format, follow the CIF links at
#  http://www.iucr.org
##########################################################################

data_image0

_cell_length_a                          9.6187
_cell_length_b                          13.8934
_cell_length_c                          17.2345
_cell_angle_alpha                       98.058
_cell_angle_beta                        90.457
_cell_angle_gamma                       90.599
_symmetry_space_group_name_H-M          'P 1'
_symmetry_int_tables_number             1
loop_
  _symmetry_equiv_pos_as_xyz
         'x, y, z' 
loop_
  _atom_site_label
  _atom_site_occupancy
  _atom_site_fract_x
  _atom_site_fract_y
  _atom_site_fract_z
  _atom_site_thermal_displace_type
  _atom_site_B_iso_or_equiv
  _atom_site_type_symbol
  _atom_site_charge
         C1        1.0000    0.03440   0.15250   0.33610   Biso      1.000     C          0.077295  
         C2        1.0000    0.84720   0.69970   0.18930   Biso      1.000     C          -0.017341           
         C3        1.0000    0.83070   0.62980   0.23940   Biso      1.000     C          -0.15037799999999998          
         C4        1.0000    0.78160   0.68610   0.10880   Biso      1.000     C          0.614222  
         C5        1.0000    0.22220   0.39510   0.56470   Biso      1.000     C          0.166409  
         C6        1.0000    0.27880   0.29780   0.55050   Biso      1.000     C          -0.18928599999999998          
         C7        1.0000    0.34510   0.29130   0.48100   Biso      1.000     C          -0.19378399999999998          
         C8        1.0000    0.92580   0.78310   0.21490   Biso      1.000     C          -0.092396           
         C9        1.0000    0.33230   0.38480   0.45330   Biso      1.000     C          0.17038699999999998           
         C10       1.0000    0.39700   0.50000   0.36120   Biso      1.000     C          0.171263  
         C11       1.0000    0.48030   0.52580   0.29920   Biso      1.000     C          -0.180491           
         C12       1.0000    0.47700   0.62540   0.30350   Biso      1.000     C          -0.181491           
         C13       1.0000    0.38580   0.66170   0.36600   Biso      1.000     C          0.159031  
         C14       1.0000    0.35300   0.75940   0.39020   Biso      1.000     C          0.045517  
         C15       1.0000    0.26140   0.79140   0.45100   Biso      1.000     C          0.147098  
         C16       1.0000    0.38980   0.40640   0.38330   Biso      1.000     C          0.062167999999999994          
         C17       1.0000    0.21520   0.89080   0.46810   Biso      1.000     C          -0.199492           
         C18       1.0000    0.98720   0.79510   0.28800   Biso      1.000     C          -0.081974           
         C19       1.0000    0.88800   0.64190   0.31430   Biso      1.000     C          0.076275  
         C20       1.0000    0.60980   0.70160   0.74600   Biso      1.000     C          -0.146824           
         C21       1.0000    0.63150   0.81440   0.87270   Biso      1.000     C          0.589667  
         C22       1.0000    0.57090   0.16698   0.65143   Biso      1.000     C          0.071376  
         C23       1.0000    0.46810   0.10980   0.61004   Biso      1.000     C          -0.146033           
         C24       1.0000    0.38680   0.06040   0.73035   Biso      1.000     C          -0.096455           
         C25       1.0000    0.48970   0.11750   0.77174   Biso      1.000     C          -0.008934000000000001         
         C26       1.0000    0.97010   0.72490   0.33760   Biso      1.000     C          -0.131742           
         C27       1.0000    0.58180   0.17082   0.73228   Biso      1.000     C          -0.15548900000000002          
         C28       1.0000    0.16100   0.11920   0.36360   Biso      1.000     C          -0.142119           
         C29       1.0000    0.24490   0.05710   0.31330   Biso      1.000     C          -0.085029           
         C30       1.0000    0.20320   0.02690   0.23630   Biso      1.000     C          -0.09022899999999999          
         C31       1.0000    0.07420   0.05540   0.21080   Biso      1.000     C          -0.003498           
         C32       1.0000    0.99130   0.11660   0.26000   Biso      1.000     C          -0.158599           
         C33       1.0000    0.02700   0.01880   0.12870   Biso      1.000     C          0.673584  
         C34       1.0000    0.50380   0.11910   0.85880   Biso      1.000     C          0.610935  
         C35       1.0000    0.12400   0.89350   0.52860   Biso      1.000     C          -0.205733           
         C36       1.0000    0.11810   0.79640   0.54910   Biso      1.000     C          0.152883  
         C37       1.0000    0.04520   0.77120   0.61390   Biso      1.000     C          0.040326999999999995          
         C38       1.0000    0.96560   0.84750   0.66390   Biso      1.000     C          0.077295  
         C39       1.0000    0.83900   0.88080   0.63640   Biso      1.000     C          -0.14212  
         C40       1.0000    0.75510   0.94290   0.68670   Biso      1.000     C          -0.085029           
         C41       1.0000    0.79680   0.97310   0.76370   Biso      1.000     C          -0.09022999999999999          
         C42       1.0000    0.92580   0.94460   0.78920   Biso      1.000     C          -0.003498           
         C43       1.0000    0.00870   0.88340   0.74000   Biso      1.000     C          -0.158599           
         C44       1.0000    0.49620   0.88090   0.14120   Biso      1.000     C          0.610933  
         C45       1.0000    0.97300   0.98120   0.87130   Biso      1.000     C          0.673584  
         C46       1.0000    0.02990   0.27510   0.66240   Biso      1.000     C          -0.131742           
         C47       1.0000    0.01280   0.20490   0.71200   Biso      1.000     C          -0.081974           
         C48       1.0000    0.07420   0.21690   0.78510   Biso      1.000     C          -0.092397           
         C49       1.0000    0.15280   0.30030   0.81070   Biso      1.000     C          -0.017341           
         C50       1.0000    0.16930   0.37020   0.76060   Biso      1.000     C          -0.150376           
         C51       1.0000    0.21840   0.31390   0.89120   Biso      1.000     C          0.614209  
         C52       1.0000    0.11200   0.35810   0.68570   Biso      1.000     C          0.076274  
         C53       1.0000    0.41820   0.82918   0.26772   Biso      1.000     C          -0.15548900000000002          
         C54       1.0000    0.51030   0.88250   0.22826   Biso      1.000     C          -0.008935           
         C55       1.0000    0.61320   0.93960   0.26965   Biso      1.000     C          -0.096456           
         C56       1.0000    0.04410   0.67900   0.63840   Biso      1.000     C          0.158588  
         C57       1.0000    0.97130   0.65170   0.70480   Biso      1.000     C          -0.186444           
         C58       1.0000    0.99750   0.55780   0.70970   Biso      1.000     C          -0.166142           
         C59       1.0000    0.08720   0.52200   0.64610   Biso      1.000     C          0.17636500000000002           
         C60       1.0000    0.14160   0.42810   0.62980   Biso      1.000     C          0.060707000000000004          
         C61       1.0000    0.45080   0.32530   0.32800   Biso      1.000     C          0.067551  
         C62       1.0000    0.56590   0.27420   0.34900   Biso      1.000     C          -0.12108699999999999          
         C63       1.0000    0.61660   0.19630   0.29870   Biso      1.000     C          -0.095421           
         C64       1.0000    0.55220   0.16760   0.22600   Biso      1.000     C          -0.09023400000000001          
         C65       1.0000    0.44010   0.21940   0.20340   Biso      1.000     C          0.008235  
         C66       1.0000    0.39020   0.29840   0.25400   Biso      1.000     C          -0.146824           
         C67       1.0000    0.36850   0.18560   0.12730   Biso      1.000     C          0.589666  
         C68       1.0000    0.42910   0.83302   0.34857   Biso      1.000     C          0.071376  
         C69       1.0000    0.53190   0.89020   0.38996   Biso      1.000     C          -0.146034           
         C70       1.0000    0.62400   0.94350   0.35050   Biso      1.000     C          -0.084755           
         C71       1.0000    0.55990   0.78060   0.79660   Biso      1.000     C          0.008232999999999999          
         C72       1.0000    0.44780   0.83240   0.77400   Biso      1.000     C          -0.090232           
         C73       1.0000    0.37600   0.05650   0.64950   Biso      1.000     C          -0.084755           
         C74       1.0000    0.43410   0.72580   0.65100   Biso      1.000     C          -0.12108699999999999          
         C75       1.0000    0.38340   0.80370   0.70130   Biso      1.000     C          -0.095421           
         C76       1.0000    0.72120   0.70220   0.44950   Biso      1.000     C          -0.18928599999999998          
         C77       1.0000    0.65490   0.70870   0.51900   Biso      1.000     C          -0.19378499999999999          
         C78       1.0000    0.66770   0.61520   0.54670   Biso      1.000     C          0.17038499999999998           
         C79       1.0000    0.61020   0.59360   0.61670   Biso      1.000     C          0.062167999999999994          
         C80       1.0000    0.60300   0.50000   0.63880   Biso      1.000     C          0.171261  
         C81       1.0000    0.51970   0.47420   0.70080   Biso      1.000     C          -0.180491           
         C82       1.0000    0.52300   0.37460   0.69650   Biso      1.000     C          -0.181491           
         C83       1.0000    0.61420   0.33830   0.63400   Biso      1.000     C          0.159029  
         C84       1.0000    0.64700   0.24060   0.60980   Biso      1.000     C          0.045517  
         C85       1.0000    0.73860   0.20860   0.54900   Biso      1.000     C          0.147096  
         C86       1.0000    0.77780   0.60490   0.43530   Biso      1.000     C          0.166408  
         C87       1.0000    0.54920   0.67470   0.67200   Biso      1.000     C          0.067551  
         C88       1.0000    0.87600   0.10650   0.47140   Biso      1.000     C          -0.205746           
         C89       1.0000    0.88190   0.20360   0.45090   Biso      1.000     C          0.152882  
         C90       1.0000    0.95480   0.22880   0.38610   Biso      1.000     C          0.040326999999999995          
         C91       1.0000    0.95590   0.32100   0.36160   Biso      1.000     C          0.15858599999999998           
         C92       1.0000    0.02870   0.34830   0.29520   Biso      1.000     C          -0.186444           
         C93       1.0000    0.00250   0.44220   0.29030   Biso      1.000     C          -0.166142           
         C94       1.0000    0.91280   0.47800   0.35390   Biso      1.000     C          0.17636300000000002           
         C95       1.0000    0.85840   0.57190   0.37020   Biso      1.000     C          0.060708000000000005          
         C96       1.0000    0.78480   0.10920   0.53190   Biso      1.000     C          -0.199479           
         H1        1.0000    0.32390   0.02400   0.75730   Biso      1.000     H          0.11816800000000001           
         H2        1.0000    0.65210   0.20990   0.76060   Biso      1.000     H          0.132319  
         H3        1.0000    0.18960   0.13890   0.41640   Biso      1.000     H          0.112571  
         H4        1.0000    0.33070   0.03550   0.33200   Biso      1.000     H          0.102399  
         H5        1.0000    0.60860   0.76410   0.54490   Biso      1.000     H          0.125401  
         H6        1.0000    0.90330   0.13470   0.24180   Biso      1.000     H          0.126825  
         H7        1.0000    0.01450   0.73330   0.38760   Biso      1.000     H          0.108761  
         H8        1.0000    0.30570   0.01750   0.62120   Biso      1.000     H          0.10236   
         H9        1.0000    0.04160   0.85170   0.30490   Biso      1.000     H          0.104065  
         H10       1.0000    0.26200   0.98730   0.20150   Biso      1.000     H          0.120566  
         H11       1.0000    0.46070   0.10720   0.55480   Biso      1.000     H          0.115977  
         H12       1.0000    0.03710   0.47840   0.25160   Biso      1.000     H          0.14313800000000002           
         H13       1.0000    0.41480   0.88710   0.80780   Biso      1.000     H          0.122868  
         H14       1.0000    0.30470   0.83780   0.68630   Biso      1.000     H          0.100052  
         H15       1.0000    0.38990   0.70690   0.60160   Biso      1.000     H          0.117824  
         H16       1.0000    0.08570   0.30690   0.26060   Biso      1.000     H          0.131995  
         H17       1.0000    0.92560   0.05150   0.44750   Biso      1.000     H          0.129165  
         H18       1.0000    0.75720   0.05620   0.55780   Biso      1.000     H          0.125212  
         H19       1.0000    0.47370   0.33660   0.72910   Biso      1.000     H          0.131825  
         H20       1.0000    0.47080   0.51770   0.73820   Biso      1.000     H          0.141388  
         H21       1.0000    0.93700   0.83180   0.18180   Biso      1.000     H          0.10674000000000002           
         H22       1.0000    0.72900   0.75130   0.41660   Biso      1.000     H          0.125358  
         H23       1.0000    0.68580   0.66570   0.76200   Biso      1.000     H          0.128834  
         H24       1.0000    0.77880   0.57220   0.22160   Biso      1.000     H          0.124918  
         H25       1.0000    0.24280   0.94380   0.44220   Biso      1.000     H          0.12521400000000002           
         H26       1.0000    0.39140   0.23590   0.45510   Biso      1.000     H          0.125401  
         H27       1.0000    0.22120   0.42780   0.77840   Biso      1.000     H          0.124919  
         H28       1.0000    0.06300   0.16820   0.81820   Biso      1.000     H          0.10674000000000002           
         H29       1.0000    0.27100   0.24870   0.58340   Biso      1.000     H          0.125359  
         H30       1.0000    0.98550   0.26670   0.61240   Biso      1.000     H          0.108761  
         H31       1.0000    0.09670   0.86530   0.75820   Biso      1.000     H          0.126825  
         H32       1.0000    0.73800   0.01270   0.79850   Biso      1.000     H          0.120566  
         H33       1.0000    0.66930   0.96450   0.66800   Biso      1.000     H          0.102399  
         H34       1.0000    0.81040   0.86110   0.58360   Biso      1.000     H          0.112572  
         H35       1.0000    0.34790   0.79010   0.23940   Biso      1.000     H          0.13232   
         H36       1.0000    0.67610   0.97600   0.24270   Biso      1.000     H          0.11816800000000001           
         H37       1.0000    0.95840   0.14830   0.69510   Biso      1.000     H          0.104065  
         H38       1.0000    0.53930   0.89280   0.44520   Biso      1.000     H          0.115977  
         H39       1.0000    0.31420   0.33430   0.23800   Biso      1.000     H          0.128834  
         H40       1.0000    0.58520   0.11290   0.19220   Biso      1.000     H          0.122869  
         H41       1.0000    0.69530   0.16220   0.31370   Biso      1.000     H          0.100052  
         H42       1.0000    0.61010   0.29310   0.39840   Biso      1.000     H          0.117825  
         H43       1.0000    0.96290   0.52160   0.74840   Biso      1.000     H          0.14313800000000002           
         H44       1.0000    0.91430   0.69310   0.73940   Biso      1.000     H          0.131995  
         H45       1.0000    0.07440   0.94850   0.55250   Biso      1.000     H          0.129165  
         H46       1.0000    0.52630   0.66340   0.27090   Biso      1.000     H          0.131826  
         H47       1.0000    0.52920   0.48230   0.26180   Biso      1.000     H          0.141388  
         H48       1.0000    0.69430   0.98250   0.37880   Biso      1.000     H          0.10236   
         N1        1.0000    0.11230   0.59710   0.60340   Biso      1.000     N          -0.233659           
         N2        1.0000    0.20060   0.73480   0.50070   Biso      1.000     N          -0.259841           
         N3        1.0000    0.33930   0.58280   0.39970   Biso      1.000     N          -0.242466           
         N4        1.0000    0.25760   0.44800   0.50590   Biso      1.000     N          -0.234839           
         N5        1.0000    0.88770   0.40290   0.39660   Biso      1.000     N          -0.23365500000000003          
         N6        1.0000    0.74240   0.55200   0.49410   Biso      1.000     N          -0.234835           
         N7        1.0000    0.66070   0.41720   0.60030   Biso      1.000     N          -0.242465           
         N8        1.0000    0.79940   0.26520   0.49930   Biso      1.000     N          -0.259839           
         O1        1.0000    0.88180   0.98900   0.92492   Biso      1.000     O          -0.737865           
         O2        1.0000    0.78150   0.75680   0.07070   Biso      1.000     O          -0.7087180000000001           
         O3        1.0000    0.09800   0.00400   0.88284   Biso      1.000     O          -0.690079           
         O4        1.0000    0.38750   0.84460   0.10730   Biso      1.000     O          -0.46474899999999997          
         O5        1.0000    0.59420   0.91670   0.10616   Biso      1.000     O          -0.7004130000000001           
         O6        1.0000    0.25640   0.22440   0.10918   Biso      1.000     O          -0.652806           
         O7        1.0000    0.42070   0.11670   0.08121   Biso      1.000     O          -0.653756           
         O8        1.0000    0.73390   0.60410   0.08100   Biso      1.000     O          -0.413916           
         O9        1.0000    0.21850   0.24320   0.92930   Biso      1.000     O          -0.708717           
         O10       1.0000    0.90200   0.99600   0.11716   Biso      1.000     O          -0.690078           
         O11       1.0000    0.61250   0.15540   0.89270   Biso      1.000     O          -0.46475299999999997          
         O12       1.0000    0.40580   0.08330   0.89384   Biso      1.000     O          -0.700412           
         O13       1.0000    0.74360   0.77560   0.89082   Biso      1.000     O          -0.652806           
         O14       1.0000    0.57930   0.88330   0.91879   Biso      1.000     O          -0.653756           
         O15       1.0000    0.26610   0.39590   0.91900   Biso      1.000     O          -0.41389899999999996          
         O16       1.0000    0.11820   0.01100   0.07508   Biso      1.000     O          -0.737865           
         Sm1       1.0000    0.22966   0.09955   0.98572   Biso      1.000     Sm          2.195896  
         Sm2       1.0000    0.77034   0.90045   0.01428   Biso      1.000     Sm          2.195896 