
##########################################################################
#               Crystallographic Information Format file
#               Produced by PyCifRW module
#
#  This is a CIF file.  CIF has been adopted by the International
#  Union of Crystallography as the standard for data archiving and
#  transmission.
#
#  For information on this file format, follow the CIF links at
#  http://www.iucr.org
##########################################################################

data_image0

_cell_length_a                          6.56
_cell_length_b                          18.929
_cell_length_c                          11.411
_cell_angle_alpha                       90
_cell_angle_beta                        90
_cell_angle_gamma                       90
_symmetry_space_group_name_H-M          'P 1'
_symmetry_int_tables_number             1
loop_
  _symmetry_equiv_pos_as_xyz
         'x, y, z' 
loop_
  _atom_site_label
  _atom_site_occupancy
  _atom_site_fract_x
  _atom_site_fract_y
  _atom_site_fract_z
  _atom_site_thermal_displace_type
  _atom_site_B_iso_or_equiv
  _atom_site_type_symbol
  _atom_site_charge
         C1        1.0000    0.75680   0.70591   0.77770   Biso      1.000     C          0.525701  
         C2        1.0000    0.64540   0.63970   0.27020   Biso      1.000     C          0.502363  
         C3        1.0000    0.75680   0.70591   0.22230   Biso      1.000     C          0.5257029999999999  
         C4        1.0000    0.35460   0.36030   0.27020   Biso      1.000     C          0.5023850000000001  
         C5        1.0000    0.24320   0.29409   0.22230   Biso      1.000     C          0.525694  
         C6        1.0000    0.14540   0.86030   0.22980   Biso      1.000     C          0.502364  
         C7        1.0000    0.25680   0.79409   0.27770   Biso      1.000     C          0.525704  
         C8        1.0000    0.85460   0.13970   0.22980   Biso      1.000     C          0.502383  
         C9        1.0000    0.25680   0.79409   0.72230   Biso      1.000     C          0.5257029999999999  
         C10       1.0000    0.14540   0.86030   0.77020   Biso      1.000     C          0.502363  
         C11       1.0000    0.74320   0.20591   0.72230   Biso      1.000     C          0.525694  
         C12       1.0000    0.85460   0.13970   0.77020   Biso      1.000     C          0.502383  
         C13       1.0000    0.74320   0.20591   0.27770   Biso      1.000     C          0.525694  
         C14       1.0000    0.64540   0.63970   0.72980   Biso      1.000     C          0.502363  
         C15       1.0000    0.24320   0.29409   0.77770   Biso      1.000     C          0.525696  
         C16       1.0000    0.35460   0.36030   0.72980   Biso      1.000     C          0.5023850000000001  
         La1       1.0000    0.13752   0.75286   0.00000   Biso      1.000     La          1.8611959999999999  
         La2       1.0000    0.25247   0.41935   0.00000   Biso      1.000     La          1.729638  
         La3       1.0000    0.74753   0.58065   0.00000   Biso      1.000     La          1.729464  
         La4       1.0000    0.75247   0.08065   0.50000   Biso      1.000     La          1.7295919999999998  
         La5       1.0000    0.24753   0.91935   0.50000   Biso      1.000     La          1.729454  
         La6       1.0000    0.36248   0.25286   0.50000   Biso      1.000     La          1.861246  
         La7       1.0000    0.63752   0.74714   0.50000   Biso      1.000     La          1.861203  
         La8       1.0000    0.86248   0.24714   0.00000   Biso      1.000     La          1.8612529999999998  
         N1        1.0000    0.20480   0.10770   0.50000   Biso      1.000     N          0.720857  
         N2        1.0000    0.79520   0.89230   0.50000   Biso      1.000     N          0.720904  
         N3        1.0000    0.70480   0.39230   0.00000   Biso      1.000     N          0.720857  
         N4        1.0000    0.29520   0.60770   0.00000   Biso      1.000     N          0.720903  
         O1        1.0000    0.17410   0.29918   0.11990   Biso      1.000     O          -0.612793           
         O2        1.0000    0.42700   0.35572   0.37250   Biso      1.000     O          -0.548787           
         O3        1.0000    0.36800   0.41312   0.20640   Biso      1.000     O          -0.527273           
         O4        1.0000    0.76780   0.75785   0.28870   Biso      1.000     O          -0.567608           
         O5        1.0000    0.82590   0.70082   0.11990   Biso      1.000     O          -0.6128020000000001           
         O6        1.0000    0.57300   0.64428   0.37250   Biso      1.000     O          -0.5487489999999999           
         O7        1.0000    0.63200   0.58688   0.20640   Biso      1.000     O          -0.527233           
         O8        1.0000    0.10390   0.62190   0.00000   Biso      1.000     O          -0.44552200000000003          
         O9        1.0000    0.42070   0.66014   0.00000   Biso      1.000     O          -0.44554799999999994          
         O10       1.0000    0.36280   0.54541   0.00000   Biso      1.000     O          -0.392725           
         O11       1.0000    0.89610   0.37810   0.00000   Biso      1.000     O          -0.44575600000000004          
         O12       1.0000    0.57930   0.33986   0.00000   Biso      1.000     O          -0.44576899999999997          
         O13       1.0000    0.63720   0.45459   0.00000   Biso      1.000     O          -0.393049           
         O14       1.0000    0.60390   0.87810   0.50000   Biso      1.000     O          -0.445542           
         O15       1.0000    0.92070   0.83986   0.50000   Biso      1.000     O          -0.445568           
         O16       1.0000    0.86280   0.95459   0.50000   Biso      1.000     O          -0.392748           
         O17       1.0000    0.39610   0.12190   0.50000   Biso      1.000     O          -0.445712           
         O18       1.0000    0.07930   0.16014   0.50000   Biso      1.000     O          -0.44573199999999996          
         O19       1.0000    0.13720   0.04541   0.50000   Biso      1.000     O          -0.39300300000000005          
         O20       1.0000    0.50000   0.00000   0.36310   Biso      1.000     O          -0.57077  
         O21       1.0000    0.00000   0.50000   0.13690   Biso      1.000     O          -0.570773           
         O22       1.0000    0.23220   0.24215   0.28870   Biso      1.000     O          -0.5676   
         O23       1.0000    0.13200   0.91312   0.29360   Biso      1.000     O          -0.5272359999999999           
         O24       1.0000    0.82590   0.70082   0.88010   Biso      1.000     O          -0.6128020000000001           
         O25       1.0000    0.32590   0.79918   0.38010   Biso      1.000     O          -0.6128020000000001           
         O26       1.0000    0.26780   0.74215   0.78870   Biso      1.000     O          -0.567609           
         O27       1.0000    0.32590   0.79918   0.61990   Biso      1.000     O          -0.612799           
         O28       1.0000    0.07300   0.85572   0.87250   Biso      1.000     O          -0.5487479999999999           
         O29       1.0000    0.13200   0.91312   0.70640   Biso      1.000     O          -0.527227           
         O30       1.0000    0.73220   0.25785   0.78870   Biso      1.000     O          -0.5675979999999999           
         O31       1.0000    0.67410   0.20082   0.61990   Biso      1.000     O          -0.612797           
         O32       1.0000    0.92700   0.14428   0.87250   Biso      1.000     O          -0.548786           
         O33       1.0000    0.86800   0.08688   0.70640   Biso      1.000     O          -0.5272789999999999           
         O34       1.0000    0.76780   0.75785   0.71130   Biso      1.000     O          -0.567602           
         O35       1.0000    0.50000   0.00000   0.63690   Biso      1.000     O          -0.570778           
         O36       1.0000    0.57300   0.64428   0.62750   Biso      1.000     O          -0.548752           
         O37       1.0000    0.63200   0.58688   0.79360   Biso      1.000     O          -0.5272319999999999           
         O38       1.0000    0.23220   0.24215   0.71130   Biso      1.000     O          -0.567607           
         O39       1.0000    0.17410   0.29918   0.88010   Biso      1.000     O          -0.612792           
         O40       1.0000    0.42700   0.35572   0.62750   Biso      1.000     O          -0.5487850000000001           
         O41       1.0000    0.36800   0.41312   0.79360   Biso      1.000     O          -0.527276           
         O42       1.0000    0.73220   0.25785   0.21130   Biso      1.000     O          -0.5675979999999999           
         O43       1.0000    0.67410   0.20082   0.38010   Biso      1.000     O          -0.612795           
         O44       1.0000    0.92700   0.14428   0.12750   Biso      1.000     O          -0.5487850000000001           
         O45       1.0000    0.86800   0.08688   0.29360   Biso      1.000     O          -0.527269           
         O46       1.0000    0.26780   0.74215   0.21130   Biso      1.000     O          -0.5676100000000001           
         O47       1.0000    0.07300   0.85572   0.12750   Biso      1.000     O          -0.548751           
         O48       1.0000    0.00000   0.50000   0.86310   Biso      1.000     O          -0.57077 