
##########################################################################
#               Crystallographic Information Format file
#               Produced by PyCifRW module
#
#  This is a CIF file.  CIF has been adopted by the International
#  Union of Crystallography as the standard for data archiving and
#  transmission.
#
#  For information on this file format, follow the CIF links at
#  http://www.iucr.org
##########################################################################

data_image0

_cell_length_a                          10.661
_cell_length_b                          11.998
_cell_length_c                          13.878
_cell_angle_alpha                       72.774
_cell_angle_beta                        79.859
_cell_angle_gamma                       81.106
_symmetry_space_group_name_H-M          'P 1'
_symmetry_int_tables_number             1
loop_
  _symmetry_equiv_pos_as_xyz
         'x, y, z' 
loop_
  _atom_site_label
  _atom_site_occupancy
  _atom_site_fract_x
  _atom_site_fract_y
  _atom_site_fract_z
  _atom_site_thermal_displace_type
  _atom_site_B_iso_or_equiv
  _atom_site_type_symbol
  _atom_site_charge
         C1        1.0000    0.05190   0.46650   0.97020   Biso      1.000     C          -0.122705           
         C2        1.0000    0.14350   0.40030   0.32840   Biso      1.000     C          0.086167  
         C3        1.0000    0.70530   0.67470   0.80320   Biso      1.000     C          -0.128082           
         C4        1.0000    0.11090   0.73300   0.08810   Biso      1.000     C          0.13830399999999998           
         C5        1.0000    0.29860   0.00850   0.96980   Biso      1.000     C          0.128154  
         C6        1.0000    0.76230   0.67040   0.42090   Biso      1.000     C          0.115945  
         C7        1.0000    0.23800   0.53760   0.33140   Biso      1.000     C          0.134625  
         C8        1.0000    0.41270   0.79100   0.74920   Biso      1.000     C          0.052383000000000006          
         C9        1.0000    0.76200   0.46240   0.66860   Biso      1.000     C          0.13455699999999998           
         C10       1.0000    0.42530   0.09100   0.71170   Biso      1.000     C          -0.128244           
         C11       1.0000    0.58550   0.24100   0.39070   Biso      1.000     C          0.133535  
         C12       1.0000    0.23010   0.03970   0.83450   Biso      1.000     C          0.080083  
         C13       1.0000    0.58730   0.20900   0.25080   Biso      1.000     C          0.052663  
         C14       1.0000    0.76990   0.96030   0.16550   Biso      1.000     C          0.080104  
         C15       1.0000    0.64820   0.79240   0.74190   Biso      1.000     C          -0.14768199999999998          
         C16       1.0000    0.70140   0.99150   0.03020   Biso      1.000     C          0.128145  
         C17       1.0000    0.88910   0.26700   0.91190   Biso      1.000     C          0.13825   
         C18       1.0000    0.87320   0.61420   0.30170   Biso      1.000     C          0.145559  
         C19       1.0000    0.41450   0.75900   0.60930   Biso      1.000     C          0.133406  
         C20       1.0000    0.57460   0.77540   0.32610   Biso      1.000     C          -0.1308   
         C21       1.0000    0.94810   0.53350   0.02980   Biso      1.000     C          -0.12273599999999998          
         C22       1.0000    0.29470   0.32530   0.19680   Biso      1.000     C          -0.128127           
         C23       1.0000    0.42540   0.22460   0.67390   Biso      1.000     C          -0.130941           
         C24       1.0000    0.95130   0.74810   0.01370   Biso      1.000     C          0.07499700000000001           
         C25       1.0000    0.12680   0.38580   0.69830   Biso      1.000     C          0.145531  
         C26       1.0000    0.23770   0.32960   0.57910   Biso      1.000     C          0.11581400000000001           
         C27       1.0000    0.85650   0.59970   0.67160   Biso      1.000     C          0.086149  
         C28       1.0000    0.04870   0.25190   0.98630   Biso      1.000     C          0.074485  
         C29       1.0000    0.35180   0.20760   0.25810   Biso      1.000     C          -0.147571           
         C30       1.0000    0.57470   0.90900   0.28830   Biso      1.000     C          -0.127996           
         H1        1.0000    0.73160   0.68520   0.48340   Biso      1.000     H          0.101138  
         H2        1.0000    0.69630   0.00980   0.96100   Biso      1.000     H          0.062941  
         H3        1.0000    0.38770   0.80740   0.81170   Biso      1.000     H          0.114321  
         H4        1.0000    0.22490   0.31370   0.16570   Biso      1.000     H          0.127894  
         H5        1.0000    0.91580   0.65330   0.65920   Biso      1.000     H          0.118055  
         H6        1.0000    0.12630   0.44140   0.00590   Biso      1.000     H          0.127245  
         H7        1.0000    0.38630   0.74940   0.55280   Biso      1.000     H          0.054089  
         H8        1.0000    0.64060   0.63910   0.85720   Biso      1.000     H          0.128813  
         H9        1.0000    0.37260   0.15390   0.21590   Biso      1.000     H          0.10848800000000001           
         H10       1.0000    0.07810   0.51810   0.90350   Biso      1.000     H          0.0541    
         H11       1.0000    0.05940   0.42220   0.73430   Biso      1.000     H          0.08250299999999999           
         H12       1.0000    0.71060   0.82520   0.68450   Biso      1.000     H          0.111794  
         H13       1.0000    0.51890   0.75570   0.39060   Biso      1.000     H          0.11329600000000001           
         H14       1.0000    0.30370   0.99020   0.03900   Biso      1.000     H          0.062927  
         H15       1.0000    0.74270   0.39830   0.65160   Biso      1.000     H          0.064259  
         H16       1.0000    0.17720   0.04760   0.78570   Biso      1.000     H          0.12725899999999998           
         H17       1.0000    0.25730   0.60170   0.34840   Biso      1.000     H          0.064072  
         H18       1.0000    0.61230   0.19260   0.18830   Biso      1.000     H          0.114328  
         H19       1.0000    0.82600   0.24810   0.88280   Biso      1.000     H          0.11541400000000002           
         H20       1.0000    0.82280   0.95240   0.21430   Biso      1.000     H          0.12735   
         H21       1.0000    0.48710   0.94580   0.28660   Biso      1.000     H          0.101796  
         H22       1.0000    0.51290   0.05420   0.71340   Biso      1.000     H          0.10222   
         H23       1.0000    0.26840   0.31480   0.51660   Biso      1.000     H          0.101112  
         H24       1.0000    0.88050   0.77710   0.97950   Biso      1.000     H          0.11214500000000001           
         H25       1.0000    0.08420   0.34670   0.34080   Biso      1.000     H          0.11796500000000001           
         H26       1.0000    0.46090   0.25060   0.72230   Biso      1.000     H          0.13096   
         H27       1.0000    0.11950   0.22290   0.02050   Biso      1.000     H          0.112266  
         H28       1.0000    0.53910   0.74940   0.27770   Biso      1.000     H          0.13103900000000002           
         H29       1.0000    0.28940   0.17480   0.31550   Biso      1.000     H          0.11192200000000001           
         H30       1.0000    0.92190   0.48190   0.09650   Biso      1.000     H          0.053786  
         H31       1.0000    0.77510   0.68630   0.83430   Biso      1.000     H          0.12787   
         H32       1.0000    0.38800   0.06430   0.66460   Biso      1.000     H          0.10675599999999999           
         H33       1.0000    0.17400   0.75190   0.11720   Biso      1.000     H          0.115344  
         H34       1.0000    0.35940   0.36090   0.14280   Biso      1.000     H          0.128796  
         H35       1.0000    0.87370   0.55860   0.99410   Biso      1.000     H          0.127272  
         H36       1.0000    0.62740   0.84610   0.78410   Biso      1.000     H          0.108401  
         H37       1.0000    0.61370   0.25060   0.44720   Biso      1.000     H          0.054229999999999993          
         H38       1.0000    0.48110   0.24430   0.60940   Biso      1.000     H          0.113227  
         H39       1.0000    0.94060   0.57780   0.26570   Biso      1.000     H          0.082526  
         H40       1.0000    0.61200   0.93570   0.33540   Biso      1.000     H          0.106752  
         Mo1       1.0000    0.14817   0.01247   0.53183   Biso      1.000     Mo          1.340784  
         Mo2       1.0000    0.87685   0.21404   0.54577   Biso      1.000     Mo          1.3224069999999999  
         Mo3       1.0000    0.90915   0.00061   0.74627   Biso      1.000     Mo          1.3537190000000001  
         Mo4       1.0000    0.09085   0.99939   0.25373   Biso      1.000     Mo          1.351677  
         Mo5       1.0000    0.85183   0.98753   0.46817   Biso      1.000     Mo          1.3396190000000001  
         Mo6       1.0000    0.87851   0.22137   0.26338   Biso      1.000     Mo          0.7269369999999999  
         Mo7       1.0000    0.12149   0.77863   0.73662   Biso      1.000     Mo          0.725407  
         Mo8       1.0000    0.12315   0.78596   0.45423   Biso      1.000     Mo          1.323679  
         N1        1.0000    0.35180   0.05510   0.81400   Biso      1.000     N          0.16397799999999998           
         N2        1.0000    0.86520   0.51810   0.62360   Biso      1.000     N          -0.26602800000000004          
         N3        1.0000    0.46890   0.22010   0.29550   Biso      1.000     N          0.166576  
         N4        1.0000    0.75360   0.59500   0.73880   Biso      1.000     N          0.187909  
         N5        1.0000    0.12950   0.39350   0.59790   Biso      1.000     N          -0.265611           
         N6        1.0000    0.24640   0.40500   0.26120   Biso      1.000     N          0.187868  
         N7        1.0000    0.13480   0.48190   0.37640   Biso      1.000     N          -0.265993           
         N8        1.0000    0.53110   0.77990   0.70450   Biso      1.000     N          0.166544  
         N9        1.0000    0.53530   0.75770   0.61330   Biso      1.000     N          -0.271306           
         N10       1.0000    0.80810   0.98910   0.06470   Biso      1.000     N          -0.271451           
         N11       1.0000    0.70280   0.71080   0.33970   Biso      1.000     N          0.136125  
         N12       1.0000    0.64820   0.94490   0.18600   Biso      1.000     N          0.163973  
         N13       1.0000    0.40130   0.03450   0.89830   Biso      1.000     N          -0.307014           
         N14       1.0000    0.77600   0.67550   0.25970   Biso      1.000     N          -0.286521           
         N15       1.0000    0.68880   0.50660   0.74030   Biso      1.000     N          -0.308041           
         N16       1.0000    0.00400   0.36270   0.95820   Biso      1.000     N          0.15833599999999998           
         N17       1.0000    0.59870   0.96550   0.10170   Biso      1.000     N          -0.306848           
         N18       1.0000    0.66790   0.22540   0.30980   Biso      1.000     N          -0.332329           
         N19       1.0000    0.29720   0.28920   0.66030   Biso      1.000     N          0.13605599999999998           
         N20       1.0000    0.19190   0.01090   0.93530   Biso      1.000     N          -0.271227           
         N21       1.0000    0.09870   0.62560   0.08820   Biso      1.000     N          -0.289515           
         N22       1.0000    0.99600   0.63730   0.04180   Biso      1.000     N          0.158555  
         N23       1.0000    0.33210   0.77460   0.69020   Biso      1.000     N          -0.33248  
         N24       1.0000    0.97940   0.18650   0.95950   Biso      1.000     N          -0.286005           
         N25       1.0000    0.87050   0.60650   0.40210   Biso      1.000     N          -0.265491           
         N26       1.0000    0.90130   0.37440   0.91180   Biso      1.000     N          -0.28929299999999997          
         N27       1.0000    0.46470   0.24230   0.38670   Biso      1.000     N          -0.27104  
         N28       1.0000    0.22400   0.32450   0.74030   Biso      1.000     N          -0.28660599999999997          
         N29       1.0000    0.31120   0.49340   0.25970   Biso      1.000     N          -0.30803400000000003          
         N30       1.0000    0.02060   0.81350   0.04050   Biso      1.000     N          -0.285881           
         Ni1       1.0000    0.00000   0.00000   0.00000   Biso      1.000     Ni          0.667508  
         Ni2       1.0000    0.00000   0.50000   0.50000   Biso      1.000     Ni          0.704553  
         O1        1.0000    0.04570   0.00110   0.13980   Biso      1.000     O          -0.6760149999999999           
         O2        1.0000    0.93270   0.16080   0.67750   Biso      1.000     O          -0.770084           
         O3        1.0000    0.08020   0.64420   0.49980   Biso      1.000     O          -0.669212           
         O4        1.0000    0.12080   0.97120   0.67530   Biso      1.000     O          -0.732863           
         O5        1.0000    0.91980   0.35580   0.50020   Biso      1.000     O          -0.670022           
         O6        1.0000    0.91060   0.02270   0.58090   Biso      1.000     O          -0.855925           
         O7        1.0000    0.13390   0.82660   0.57580   Biso      1.000     O          -0.76294  
         O8        1.0000    0.95430   0.99890   0.86020   Biso      1.000     O          -0.674503           
         O9        1.0000    0.87920   0.02880   0.32470   Biso      1.000     O          -0.732016           
         O10       1.0000    0.06730   0.83920   0.32250   Biso      1.000     O          -0.769695           
         O11       1.0000    0.08940   0.97730   0.41910   Biso      1.000     O          -0.8553649999999999           
         O12       1.0000    0.90280   0.83890   0.50040   Biso      1.000     O          -0.635929           
         O13       1.0000    0.09720   0.16110   0.49960   Biso      1.000     O          -0.636259           
         O14       1.0000    0.05400   0.16670   0.24580   Biso      1.000     O          -0.75161  
         O15       1.0000    0.94600   0.83330   0.75420   Biso      1.000     O          -0.75216  
         O16       1.0000    0.86610   0.17340   0.42420   Biso      1.000     O          -0.761541 