
##########################################################################
#               Crystallographic Information Format file
#               Produced by PyCifRW module
#
#  This is a CIF file.  CIF has been adopted by the International
#  Union of Crystallography as the standard for data archiving and
#  transmission.
#
#  For information on this file format, follow the CIF links at
#  http://www.iucr.org
##########################################################################

data_image0

_cell_length_a                          9.5387
_cell_length_b                          10.425
_cell_length_c                          11.59
_cell_angle_alpha                       75.02
_cell_angle_beta                        84.8
_cell_angle_gamma                       80.99
_symmetry_space_group_name_H-M          'P 1'
_symmetry_int_tables_number             1
loop_
  _symmetry_equiv_pos_as_xyz
         'x, y, z' 
loop_
  _atom_site_label
  _atom_site_occupancy
  _atom_site_fract_x
  _atom_site_fract_y
  _atom_site_fract_z
  _atom_site_thermal_displace_type
  _atom_site_B_iso_or_equiv
  _atom_site_type_symbol
  _atom_site_charge
         C1        1.0000    0.05570   0.58390   0.13280   Biso      1.000     C          0.077753  
         C2        1.0000    0.38280   0.00520   0.11250   Biso      1.000     C          -0.163948           
         C3        1.0000    0.38540   0.86690   0.17030   Biso      1.000     C          -0.134598           
         C4        1.0000    0.42390   0.85080   0.28230   Biso      1.000     C          0.081716  
         C5        1.0000    0.44760   0.74250   0.39170   Biso      1.000     C          0.613881  
         C6        1.0000    0.70940   0.49530   0.23140   Biso      1.000     C          0.564852  
         C7        1.0000    0.83190   0.55570   0.16380   Biso      1.000     C          0.079038  
         C8        1.0000    0.79150   0.44590   0.84060   Biso      1.000     C          0.592779  
         C9        1.0000    0.84390   0.64160   0.05590   Biso      1.000     C          -0.200466           
         C10       1.0000    0.94430   0.41610   0.86720   Biso      1.000     C          0.077752  
         C11       1.0000    0.98840   0.66000   0.03540   Biso      1.000     C          -0.198294           
         C12       1.0000    0.44540   0.20140   0.19480   Biso      1.000     C          0.592414  
         C13       1.0000    0.42080   0.06560   0.19240   Biso      1.000     C          0.09471900000000001           
         C14       1.0000    0.01160   0.34000   0.96460   Biso      1.000     C          -0.198291           
         C15       1.0000    0.15610   0.35840   0.94410   Biso      1.000     C          -0.200489           
         C16       1.0000    0.16810   0.44430   0.83620   Biso      1.000     C          0.079058  
         C17       1.0000    0.29060   0.50470   0.76860   Biso      1.000     C          0.56485   
         C18       1.0000    0.55240   0.25750   0.60830   Biso      1.000     C          0.613883  
         C19       1.0000    0.57610   0.14920   0.71770   Biso      1.000     C          0.081693  
         C20       1.0000    0.61460   0.13310   0.82970   Biso      1.000     C          -0.134573           
         C21       1.0000    0.61720   0.99480   0.88750   Biso      1.000     C          -0.16395099999999999          
         C22       1.0000    0.57920   0.93440   0.80760   Biso      1.000     C          0.09471900000000001           
         C23       1.0000    0.55460   0.79860   0.80520   Biso      1.000     C          0.592414  
         C24       1.0000    0.20850   0.55410   0.15940   Biso      1.000     C          0.592779  
         Ca1       1.0000    0.50000   0.00000   0.50000   Biso      1.000     Ca          1.5156889999999998  
         Ca2       1.0000    0.45791   0.41304   0.36061   Biso      1.000     Ca          1.413116  
         Ca3       1.0000    0.54209   0.58696   0.63939   Biso      1.000     Ca          1.413117  
         Ca4       1.0000    0.50000   0.50000   0.00000   Biso      1.000     Ca          1.3985290000000001  
         H1        1.0000    0.64070   0.95370   0.96590   Biso      1.000     H          0.153922  
         H2        1.0000    0.63560   0.19960   0.86300   Biso      1.000     H          0.165214  
         H3        1.0000    0.22900   0.31880   0.99540   Biso      1.000     H          0.138402  
         H4        1.0000    0.35930   0.04630   0.03410   Biso      1.000     H          0.153922  
         H5        1.0000    0.02930   0.71400   0.96810   Biso      1.000     H          0.14868800000000001           
         H6        1.0000    0.77100   0.68120   0.00460   Biso      1.000     H          0.1384    
         H7        1.0000    0.36440   0.80040   0.13700   Biso      1.000     H          0.165216  
         H8        1.0000    0.97070   0.28600   0.03190   Biso      1.000     H          0.14868800000000001           
         O1        1.0000    0.29200   0.60300   0.07500   Biso      1.000     O          -0.652985           
         O2        1.0000    0.24230   0.48420   0.26000   Biso      1.000     O          -0.644145           
         O3        1.0000    0.70800   0.39700   0.92500   Biso      1.000     O          -0.652985           
         O4        1.0000    0.96100   0.51960   0.21455   Biso      1.000     O          -0.10588099999999999          
         O5        1.0000    0.75770   0.51580   0.74000   Biso      1.000     O          -0.644145           
         O6        1.0000    0.71650   0.43870   0.34042   Biso      1.000     O          -0.604425           
         O7        1.0000    0.59950   0.50570   0.17438   Biso      1.000     O          -0.6896680000000001           
         O8        1.0000    0.47300   0.77880   0.48232   Biso      1.000     O          -0.710604           
         O9        1.0000    0.55900   0.37510   0.60940   Biso      1.000     O          -0.585166           
         O10       1.0000    0.55460   0.02770   0.70187   Biso      1.000     O          -0.233548           
         O11       1.0000    0.03900   0.48040   0.78545   Biso      1.000     O          -0.10588199999999999          
         O12       1.0000    0.47120   0.21360   0.29618   Biso      1.000     O          -0.686203           
         O13       1.0000    0.28350   0.56130   0.65958   Biso      1.000     O          -0.604425           
         O14       1.0000    0.43840   0.28970   0.09922   Biso      1.000     O          -0.563671           
         O15       1.0000    0.40050   0.49430   0.82562   Biso      1.000     O          -0.689667           
         O16       1.0000    0.52700   0.22120   0.51768   Biso      1.000     O          -0.710604           
         O17       1.0000    0.56160   0.71030   0.90078   Biso      1.000     O          -0.563671           
         O18       1.0000    0.52880   0.78640   0.70382   Biso      1.000     O          -0.686203           
         O19       1.0000    0.44540   0.97230   0.29813   Biso      1.000     O          -0.23355  
         O20       1.0000    0.44100   0.62490   0.39060   Biso      1.000     O          -0.585166 