
##########################################################################
#               Crystallographic Information Format file
#               Produced by PyCifRW module
#
#  This is a CIF file.  CIF has been adopted by the International
#  Union of Crystallography as the standard for data archiving and
#  transmission.
#
#  For information on this file format, follow the CIF links at
#  http://www.iucr.org
##########################################################################

data_image0

_cell_length_a                          15.0005
_cell_length_b                          15.0005
_cell_length_c                          23.9639
_cell_angle_alpha                       80.5058
_cell_angle_beta                        76.3967
_cell_angle_gamma                       111.146
_symmetry_space_group_name_H-M          'P 1'
_symmetry_int_tables_number             1
loop_
  _symmetry_equiv_pos_as_xyz
         'x, y, z' 
loop_
  _atom_site_label
  _atom_site_occupancy
  _atom_site_fract_x
  _atom_site_fract_y
  _atom_site_fract_z
  _atom_site_thermal_displace_type
  _atom_site_B_iso_or_equiv
  _atom_site_type_symbol
  _atom_site_charge
         C1        1.0000    0.30920   0.49440   0.72760   Biso      1.000     C          -0.09694  
         C2        1.0000    0.56770   0.83230   0.09080   Biso      1.000     C          -0.048967           
         C3        1.0000    0.48560   0.57250   0.65470   Biso      1.000     C          0.602032  
         C4        1.0000    0.17920   0.28220   0.86780   Biso      1.000     C          0.023607  
         C5        1.0000    0.61480   0.69690   0.16090   Biso      1.000     C          0.040832  
         C6        1.0000    0.41960   0.74340   0.42200   Biso      1.000     C          -0.137456           
         C7        1.0000    0.48480   0.31070   0.82830   Biso      1.000     C          -0.137465           
         C8        1.0000    0.25740   0.36000   0.81600   Biso      1.000     C          0.035822  
         C9        1.0000    0.59320   0.99380   0.53560   Biso      1.000     C          -0.108579           
         C10       1.0000    0.07910   0.27080   0.88310   Biso      1.000     C          -0.147136           
         C11       1.0000    0.76310   0.57320   0.22150   Biso      1.000     C          -0.146107           
         C12       1.0000    0.53990   0.40350   0.55360   Biso      1.000     C          0.680611  
         C13       1.0000    0.38220   0.89290   0.40250   Biso      1.000     C          0.040275  
         C14       1.0000    0.61780   0.10710   0.59750   Biso      1.000     C          0.040273  
         C15       1.0000    0.69220   0.77510   0.11250   Biso      1.000     C          0.023382  
         C16       1.0000    0.12580   0.13910   0.95050   Biso      1.000     C          -0.134813           
         C17       1.0000    0.50950   0.24740   0.86270   Biso      1.000     C          -0.109444           
         C18       1.0000    0.41040   0.92370   0.45050   Biso      1.000     C          -0.136027           
         C19       1.0000    0.23690   0.42680   0.77850   Biso      1.000     C          -0.146098           
         C20       1.0000    0.74260   0.64000   0.18400   Biso      1.000     C          0.035823  
         C21       1.0000    0.62530   0.93420   0.57070   Biso      1.000     C          -0.004918           
         C22       1.0000    0.38520   0.30310   0.83910   Biso      1.000     C          0.040833  
         C23       1.0000    0.32680   0.83840   0.30200   Biso      1.000     C          0.018525  
         C24       1.0000    0.72720   0.14030   0.84530   Biso      1.000     C          0.599661  
         C25       1.0000    0.49050   0.75260   0.13730   Biso      1.000     C          -0.109452           
         C26       1.0000    0.66540   0.84160   0.07800   Biso      1.000     C          -0.140754           
         C27       1.0000    0.82080   0.71780   0.13220   Biso      1.000     C          0.023607  
         C28       1.0000    0.65000   0.04700   0.63220   Biso      1.000     C          0.022895  
         C29       1.0000    0.92090   0.72920   0.11690   Biso      1.000     C          -0.147136           
         C30       1.0000    0.51440   0.42750   0.34530   Biso      1.000     C          0.602034  
         C31       1.0000    0.63900   0.31310   0.67170   Biso      1.000     C          -0.137697           
         C32       1.0000    0.61980   0.83750   0.55670   Biso      1.000     C          0.59552   
         C33       1.0000    0.02940   0.12880   0.96440   Biso      1.000     C          -0.108093           
         C34       1.0000    0.59330   0.49740   0.28850   Biso      1.000     C          -0.006593           
         C35       1.0000    0.57690   0.34150   0.59080   Biso      1.000     C          -0.051671           
         C36       1.0000    0.58040   0.25660   0.57800   Biso      1.000     C          -0.137451           
         C37       1.0000    0.43170   0.44370   0.74940   Biso      1.000     C          -0.150763           
         C38       1.0000    0.65390   0.96220   0.61690   Biso      1.000     C          -0.14283  
         C39       1.0000    0.38020   0.16250   0.44330   Biso      1.000     C          0.59552   
         C40       1.0000    0.99510   0.80400   0.07070   Biso      1.000     C          -0.003855           
         C41       1.0000    0.71410   0.11820   0.78850   Biso      1.000     C          -0.007919           
         C42       1.0000    0.29470   0.98460   0.27850   Biso      1.000     C          -0.144174           
         C43       1.0000    0.67320   0.16160   0.69800   Biso      1.000     C          0.018523  
         C44       1.0000    0.38760   0.80470   0.38750   Biso      1.000     C          0.02386   
         C45       1.0000    0.79540   0.78470   0.09750   Biso      1.000     C          0.037934  
         C46       1.0000    0.89420   0.17650   0.94330   Biso      1.000     C          0.594419  
         C47       1.0000    0.67600   0.07340   0.68400   Biso      1.000     C          0.033658  
         C48       1.0000    0.69310   0.18110   0.75060   Biso      1.000     C          -0.150685           
         C49       1.0000    0.32400   0.92660   0.31600   Biso      1.000     C          0.033659  
         C50       1.0000    0.35780   0.77570   0.33910   Biso      1.000     C          0.03795   
         C51       1.0000    0.30780   0.22490   0.88750   Biso      1.000     C          0.023382  
         C52       1.0000    0.10580   0.82350   0.05670   Biso      1.000     C          0.594419  
         C53       1.0000    0.35000   0.95300   0.36780   Biso      1.000     C          0.022895  
         C54       1.0000    0.37470   0.06580   0.42930   Biso      1.000     C          -0.00492  
         C55       1.0000    0.40670   0.50260   0.71150   Biso      1.000     C          -0.006578           
         C56       1.0000    0.38990   0.62780   0.36270   Biso      1.000     C          -0.111003           
         C57       1.0000    0.64040   0.62880   0.19800   Biso      1.000     C          0.017634  
         C58       1.0000    0.00490   0.19600   0.92930   Biso      1.000     C          -0.003858           
         C59       1.0000    0.43230   0.16770   0.90920   Biso      1.000     C          -0.048968           
         C60       1.0000    0.27280   0.85970   0.15470   Biso      1.000     C          0.59966   
         C61       1.0000    0.46010   0.59650   0.44640   Biso      1.000     C          0.68061   
         C62       1.0000    0.36100   0.68690   0.32830   Biso      1.000     C          -0.137684           
         C63       1.0000    0.64220   0.22430   0.66090   Biso      1.000     C          0.037951  
         C64       1.0000    0.58960   0.07630   0.54950   Biso      1.000     C          -0.136009           
         C65       1.0000    0.61240   0.19530   0.61250   Biso      1.000     C          0.023859  
         C66       1.0000    0.97060   0.87120   0.03560   Biso      1.000     C          -0.108115           
         C67       1.0000    0.61010   0.37220   0.63730   Biso      1.000     C          -0.11099  
         C68       1.0000    0.87420   0.86090   0.04950   Biso      1.000     C          -0.134791           
         C69       1.0000    0.20460   0.21530   0.90250   Biso      1.000     C          0.037936  
         C70       1.0000    0.42310   0.65850   0.40920   Biso      1.000     C          -0.051665           
         C71       1.0000    0.72200   0.03680   0.77240   Biso      1.000     C          -0.098194           
         C72       1.0000    0.69080   0.50560   0.27240   Biso      1.000     C          -0.096927           
         C73       1.0000    0.70530   0.01540   0.72150   Biso      1.000     C          -0.144168           
         C74       1.0000    0.30690   0.81890   0.24940   Biso      1.000     C          -0.150697           
         C75       1.0000    0.54290   0.90650   0.05360   Biso      1.000     C          0.678493  
         C76       1.0000    0.34610   0.03780   0.38310   Biso      1.000     C          -0.142829           
         C77       1.0000    0.27800   0.96320   0.22760   Biso      1.000     C          -0.098192           
         C78       1.0000    0.28590   0.88180   0.21150   Biso      1.000     C          -0.007907           
         C79       1.0000    0.51520   0.68930   0.17170   Biso      1.000     C          -0.137457           
         C80       1.0000    0.56830   0.55630   0.25060   Biso      1.000     C          -0.150752           
         C81       1.0000    0.35960   0.37120   0.80200   Biso      1.000     C          0.017636  
         C82       1.0000    0.33460   0.15840   0.92200   Biso      1.000     C          -0.140753           
         C83       1.0000    0.45710   0.09350   0.94640   Biso      1.000     C          0.678493  
         C84       1.0000    0.40680   0.00620   0.46440   Biso      1.000     C          -0.108561           
         H1        1.0000    0.46300   0.63770   0.20450   Biso      1.000     H          0.113683  
         H2        1.0000    0.28360   0.10590   0.95490   Biso      1.000     H          0.133548  
         H3        1.0000    0.65780   0.33250   0.70450   Biso      1.000     H          0.114254  
         H4        1.0000    0.28620   0.04020   0.28880   Biso      1.000     H          0.119879  
         H5        1.0000    0.30830   0.76020   0.23990   Biso      1.000     H          0.120075  
         H6        1.0000    0.69170   0.23980   0.76010   Biso      1.000     H          0.120074  
         H7        1.0000    0.56080   0.23850   0.54510   Biso      1.000     H          0.132414  
         H8        1.0000    0.57790   0.25720   0.85530   Biso      1.000     H          0.117908  
         H9        1.0000    0.61250   0.43320   0.64470   Biso      1.000     H          0.119749  
         H10       1.0000    0.14110   0.09290   0.97420   Biso      1.000     H          0.11734   
         H11       1.0000    0.97850   0.07690   0.99760   Biso      1.000     H          0.116742  
         H12       1.0000    0.70840   0.46310   0.29730   Biso      1.000     H          0.117972  
         H13       1.0000    0.26040   0.00570   0.20270   Biso      1.000     H          0.118179  
         H14       1.0000    0.67740   0.92290   0.63970   Biso      1.000     H          0.126052  
         H15       1.0000    0.57450   0.97610   0.50240   Biso      1.000     H          0.117415  
         H16       1.0000    0.56710   0.11530   0.52580   Biso      1.000     H          0.116941  
         H17       1.0000    0.06260   0.31710   0.86030   Biso      1.000     H          0.127604  
         H18       1.0000    0.93740   0.68290   0.13970   Biso      1.000     H          0.127605  
         H19       1.0000    0.42210   0.74280   0.14470   Biso      1.000     H          0.117908  
         H20       1.0000    0.43290   0.88470   0.47420   Biso      1.000     H          0.116942  
         H21       1.0000    0.29160   0.53690   0.70270   Biso      1.000     H          0.117973  
         H22       1.0000    0.34220   0.66750   0.29550   Biso      1.000     H          0.114253  
         H23       1.0000    0.42550   0.02390   0.49760   Biso      1.000     H          0.117414  
         H24       1.0000    0.71380   0.95980   0.71120   Biso      1.000     H          0.119879  
         H25       1.0000    0.82900   0.57500   0.21120   Biso      1.000     H          0.118861  
         H26       1.0000    0.71640   0.89410   0.04510   Biso      1.000     H          0.133548  
         H27       1.0000    0.17100   0.42500   0.78880   Biso      1.000     H          0.11886   
         H28       1.0000    0.73960   0.99430   0.79730   Biso      1.000     H          0.118179  
         H29       1.0000    0.02150   0.92310   0.00240   Biso      1.000     H          0.116744  
         H30       1.0000    0.85890   0.90710   0.02580   Biso      1.000     H          0.117338  
         H31       1.0000    0.32260   0.07710   0.36030   Biso      1.000     H          0.126052  
         H32       1.0000    0.43920   0.76150   0.45490   Biso      1.000     H          0.132415  
         H33       1.0000    0.53700   0.36230   0.79550   Biso      1.000     H          0.113684  
         H34       1.0000    0.50010   0.54820   0.26010   Biso      1.000     H          0.119136  
         H35       1.0000    0.38750   0.56680   0.35530   Biso      1.000     H          0.11975   
         H36       1.0000    0.49990   0.45180   0.73990   Biso      1.000     H          0.119137  
         O1        1.0000    0.82735   0.09705   0.97480   Biso      1.000     O          -0.604072           
         O2        1.0000    0.12562   0.74968   0.07650   Biso      1.000     O          -0.6947   
         O3        1.0000    0.54360   0.10310   0.93610   Biso      1.000     O          -0.693087           
         O4        1.0000    0.45526   0.60754   0.61440   Biso      1.000     O          -0.607518           
         O5        1.0000    0.53920   0.47970   0.56390   Biso      1.000     O          -0.693287           
         O6        1.0000    0.54474   0.39246   0.38560   Biso      1.000     O          -0.607518           
         O7        1.0000    0.50709   0.36821   0.51530   Biso      1.000     O          -0.69085  
         O8        1.0000    0.72194   0.06966   0.88560   Biso      1.000     O          -0.605938           
         O9        1.0000    0.57185   0.80215   0.52520   Biso      1.000     O          -0.605343           
         O10       1.0000    0.57559   0.59062   0.64539   Biso      1.000     O          -0.62154  
         O11       1.0000    0.49291   0.63179   0.48470   Biso      1.000     O          -0.69085  
         O12       1.0000    0.73601   0.22098   0.85461   Biso      1.000     O          -0.620101           
         O13       1.0000    0.45640   0.89690   0.06390   Biso      1.000     O          -0.693087           
         O14       1.0000    0.61649   0.97761   0.01530   Biso      1.000     O          -0.689619           
         O15       1.0000    0.27806   0.93034   0.11440   Biso      1.000     O          -0.605938           
         O16       1.0000    0.32618   0.20212   0.42350   Biso      1.000     O          -0.695462           
         O17       1.0000    0.17265   0.90295   0.02520   Biso      1.000     O          -0.604072           
         O18       1.0000    0.87438   0.25032   0.92350   Biso      1.000     O          -0.6947   
         O19       1.0000    0.42815   0.19785   0.47480   Biso      1.000     O          -0.605343           
         O20       1.0000    0.38351   0.02239   0.98470   Biso      1.000     O          -0.689619           
         O21       1.0000    0.42441   0.40938   0.35461   Biso      1.000     O          -0.62154  
         O22       1.0000    0.67382   0.79788   0.57650   Biso      1.000     O          -0.695462           
         O23       1.0000    0.26399   0.77902   0.14539   Biso      1.000     O          -0.6201   
         O24       1.0000    0.46080   0.52030   0.43610   Biso      1.000     O          -0.693287           
         Tb1       1.0000    0.30896   0.85411   0.03443   Biso      1.000     Tb          2.003786  
         Tb2       1.0000    0.61146   0.65661   0.53443   Biso      1.000     Tb          2.004885  
         Tb3       1.0000    0.38854   0.34339   0.46557   Biso      1.000     Tb          2.004885  
         Tb4       1.0000    0.69104   0.14589   0.96557   Biso      1.000     Tb          2.003787 