
##########################################################################
#               Crystallographic Information Format file
#               Produced by PyCifRW module
#
#  This is a CIF file.  CIF has been adopted by the International
#  Union of Crystallography as the standard for data archiving and
#  transmission.
#
#  For information on this file format, follow the CIF links at
#  http://www.iucr.org
##########################################################################

data_image0

_cell_length_a                          8.5886
_cell_length_b                          9.4086
_cell_length_c                          9.4282
_cell_angle_alpha                       119.931
_cell_angle_beta                        116.514
_cell_angle_gamma                       90
_symmetry_space_group_name_H-M          'P 1'
_symmetry_int_tables_number             1
loop_
  _symmetry_equiv_pos_as_xyz
         'x, y, z' 
loop_
  _atom_site_label
  _atom_site_occupancy
  _atom_site_fract_x
  _atom_site_fract_y
  _atom_site_fract_z
  _atom_site_thermal_displace_type
  _atom_site_B_iso_or_equiv
  _atom_site_type_symbol
  _atom_site_charge
         Ba1       1.0000    0.75000   0.91920   0.00000   Biso      1.000     Ba          1.28646   
         Ba2       1.0000    0.25000   0.08080   0.00000   Biso      1.000     Ba          1.28646   
         C1        1.0000    0.81360   0.07640   0.49960   Biso      1.000     C          0.342652  
         C2        1.0000    0.68640   0.57680   0.50040   Biso      1.000     C          0.342652  
         C3        1.0000    0.31360   0.42320   0.49960   Biso      1.000     C          0.34265   
         C4        1.0000    0.18640   0.92360   0.50040   Biso      1.000     C          0.342644  
         H1        1.0000    0.57500   0.21700   0.97600   Biso      1.000     H          0.459966  
         H2        1.0000    0.65200   0.28930   0.16060   Biso      1.000     H          0.428465  
         H3        1.0000    0.92500   0.24100   0.02400   Biso      1.000     H          0.459965  
         H4        1.0000    0.84800   0.12870   0.83940   Biso      1.000     H          0.428458  
         H5        1.0000    0.07500   0.75900   0.97600   Biso      1.000     H          0.459965  
         H6        1.0000    0.34800   0.71070   0.83940   Biso      1.000     H          0.428465  
         H7        1.0000    0.42500   0.78300   0.02400   Biso      1.000     H          0.459966  
         H8        1.0000    0.15200   0.87130   0.16060   Biso      1.000     H          0.428458  
         N1        1.0000    0.91020   0.64890   0.48840   Biso      1.000     N          -0.073716           
         N2        1.0000    0.92960   0.76880   0.65220   Biso      1.000     N          -0.100042           
         N3        1.0000    0.78870   0.72680   0.66460   Biso      1.000     N          -0.350349           
         N4        1.0000    0.98030   0.03740   0.56360   Biso      1.000     N          -0.152834           
         N5        1.0000    0.71130   0.06220   0.33540   Biso      1.000     N          -0.350364           
         N6        1.0000    0.58980   0.16050   0.51160   Biso      1.000     N          -0.073735           
         N7        1.0000    0.57040   0.11660   0.34780   Biso      1.000     N          -0.100018           
         N8        1.0000    0.75680   0.52490   0.38920   Biso      1.000     N          -0.315919           
         N9        1.0000    0.74320   0.13570   0.61080   Biso      1.000     N          -0.315909           
         N10       1.0000    0.51970   0.47380   0.43640   Biso      1.000     N          -0.152836           
         N11       1.0000    0.21130   0.27320   0.33540   Biso      1.000     N          -0.350365           
         N12       1.0000    0.42960   0.88340   0.65220   Biso      1.000     N          -0.10008  
         N13       1.0000    0.41020   0.83950   0.48840   Biso      1.000     N          -0.073695           
         N14       1.0000    0.25680   0.86430   0.38920   Biso      1.000     N          -0.315914           
         N15       1.0000    0.01970   0.96260   0.43640   Biso      1.000     N          -0.152771           
         N16       1.0000    0.07040   0.23120   0.34780   Biso      1.000     N          -0.100059           
         N17       1.0000    0.08980   0.35110   0.51160   Biso      1.000     N          -0.073681           
         N18       1.0000    0.24320   0.47510   0.61080   Biso      1.000     N          -0.315924           
         N19       1.0000    0.48030   0.52620   0.56360   Biso      1.000     N          -0.152774           
         N20       1.0000    0.28870   0.93780   0.66460   Biso      1.000     N          -0.350336           
         O1        1.0000    0.59450   0.19530   0.05640   Biso      1.000     O          -0.881479           
         O2        1.0000    0.40550   0.80470   0.94360   Biso      1.000     O          -0.881479           
         O3        1.0000    0.09450   0.86110   0.05640   Biso      1.000     O          -0.881475           
         O4        1.0000    0.90550   0.13890   0.94360   Biso      1.000     O          -0.881473 