
##########################################################################
#               Crystallographic Information Format file
#               Produced by PyCifRW module
#
#  This is a CIF file.  CIF has been adopted by the International
#  Union of Crystallography as the standard for data archiving and
#  transmission.
#
#  For information on this file format, follow the CIF links at
#  http://www.iucr.org
##########################################################################

data_image0

_cell_length_a                          15.1466
_cell_length_b                          15.1466
_cell_length_c                          25.6891
_cell_angle_alpha                       84.5093
_cell_angle_beta                        77.3949
_cell_angle_gamma                       117.878
_symmetry_space_group_name_H-M          'P 1'
_symmetry_int_tables_number             1
loop_
  _symmetry_equiv_pos_as_xyz
         'x, y, z' 
loop_
  _atom_site_label
  _atom_site_occupancy
  _atom_site_fract_x
  _atom_site_fract_y
  _atom_site_fract_z
  _atom_site_thermal_displace_type
  _atom_site_B_iso_or_equiv
  _atom_site_type_symbol
  _atom_site_charge
         C1        1.0000    0.03100   0.11440   0.63940   Biso      1.000     C          0.026607  
         C2        1.0000    0.16600   0.40200   0.93300   Biso      1.000     C          0.619552  
         C3        1.0000    0.00000   0.84030   0.21770   Biso      1.000     C          -0.093356           
         C4        1.0000    0.07150   0.89810   0.42160   Biso      1.000     C          -0.017248           
         C5        1.0000    0.73820   0.91680   0.42800   Biso      1.000     C          -0.13739400000000002          
         C6        1.0000    0.76340   0.99930   0.13190   Biso      1.000     C          -0.09552000000000001          
         C7        1.0000    0.10930   0.18010   0.84560   Biso      1.000     C          0.58475   
         C8        1.0000    0.45770   0.88320   0.70610   Biso      1.000     C          -0.011763           
         C9        1.0000    0.92850   0.10190   0.57840   Biso      1.000     C          -0.017248           
         C10       1.0000    0.12790   0.53680   0.96310   Biso      1.000     C          -0.10209800000000001          
         C11       1.0000    0.44200   0.78230   0.71770   Biso      1.000     C          -0.094082           
         C12       1.0000    0.21070   0.11700   0.66130   Biso      1.000     C          0.040257  
         C13       1.0000    0.19160   0.10130   0.61110   Biso      1.000     C          0.022232  
         C14       1.0000    0.89070   0.81990   0.15440   Biso      1.000     C          0.58475   
         C15       1.0000    0.18030   0.50690   0.92160   Biso      1.000     C          -0.017184           
         C16       1.0000    0.83500   0.09900   0.56700   Biso      1.000     C          0.61755   
         C17       1.0000    0.91070   0.83620   0.20610   Biso      1.000     C          -0.012165           
         C18       1.0000    0.70090   0.88260   0.32890   Biso      1.000     C          -0.141093           
         C19       1.0000    0.63120   0.89530   0.36810   Biso      1.000     C          -0.096001           
         C20       1.0000    0.27830   0.87200   0.83870   Biso      1.000     C          0.041878  
         C21       1.0000    0.40530   0.90970   0.74760   Biso      1.000     C          -0.14391600000000002          
         C22       1.0000    0.47430   0.04510   0.34560   Biso      1.000     C          0.5846560000000001  
         C23       1.0000    0.24290   0.57460   0.87290   Biso      1.000     C          -0.140871           
         C24       1.0000    0.67710   0.25670   0.19160   Biso      1.000     C          0.042025  
         C25       1.0000    0.87210   0.46320   0.03690   Biso      1.000     C          -0.102099           
         C26       1.0000    0.75710   0.42540   0.12710   Biso      1.000     C          -0.14088299999999998          
         C27       1.0000    0.41610   0.06390   0.54200   Biso      1.000     C          0.702875  
         C28       1.0000    0.91810   0.90890   0.45120   Biso      1.000     C          -0.130455           
         C29       1.0000    0.55800   0.21770   0.28230   Biso      1.000     C          -0.094082           
         C30       1.0000    0.83170   0.07010   0.08340   Biso      1.000     C          -0.045404           
         C31       1.0000    0.10250   0.10200   0.59910   Biso      1.000     C          0.038551  
         C32       1.0000    0.08190   0.09110   0.54880   Biso      1.000     C          -0.130455           
         C33       1.0000    0.98180   0.14160   0.73380   Biso      1.000     C          -0.140013           
         C34       1.0000    0.78930   0.88300   0.33870   Biso      1.000     C          0.040257  
         C35       1.0000    0.54230   0.11680   0.29390   Biso      1.000     C          -0.011763           
         C36       1.0000    0.80840   0.89870   0.38890   Biso      1.000     C          0.022233000000000003          
         C37       1.0000    0.78760   0.19730   0.11110   Biso      1.000     C          0.021509  
         C38       1.0000    0.72170   0.12800   0.16130   Biso      1.000     C          0.041878  
         C39       1.0000    0.29910   0.11740   0.67110   Biso      1.000     C          -0.141094           
         C40       1.0000    0.86010   0.36930   0.04880   Biso      1.000     C          -0.13072  
         C41       1.0000    0.84270   0.84710   0.24760   Biso      1.000     C          -0.142583           
         C42       1.0000    0.65350   0.91510   0.41660   Biso      1.000     C          -0.045244           
         C43       1.0000    0.23660   0.00070   0.86810   Biso      1.000     C          -0.09552100000000001          
         C44       1.0000    0.33760   0.84240   0.79720   Biso      1.000     C          0.02337   
         C45       1.0000    0.94750   0.11580   0.62710   Biso      1.000     C          -0.13992000000000002          
         C46       1.0000    0.32290   0.74330   0.80840   Biso      1.000     C          0.042025  
         C47       1.0000    0.37540   0.71560   0.76620   Biso      1.000     C          -0.141025           
         C48       1.0000    0.13990   0.63070   0.95120   Biso      1.000     C          -0.130721           
         C49       1.0000    0.83400   0.59800   0.06700   Biso      1.000     C          0.6195510000000001  
         C50       1.0000    0.34650   0.08490   0.58340   Biso      1.000     C          -0.045251           
         C51       1.0000    0.59470   0.09030   0.25240   Biso      1.000     C          -0.14391600000000002          
         C52       1.0000    0.66240   0.15760   0.20280   Biso      1.000     C          0.02337   
         C53       1.0000    0.58390   0.93610   0.45800   Biso      1.000     C          0.702874  
         C54       1.0000    0.81970   0.49310   0.07840   Biso      1.000     C          -0.017172           
         C55       1.0000    0.28850   0.97020   0.82890   Biso      1.000     C          -0.14277  
         C56       1.0000    0.25380   0.67040   0.86060   Biso      1.000     C          0.024962  
         C57       1.0000    0.15520   0.83380   0.92800   Biso      1.000     C          -0.13641099999999998          
         C58       1.0000    0.36880   0.10470   0.63190   Biso      1.000     C          -0.096    
         C59       1.0000    0.08930   0.16380   0.79390   Biso      1.000     C          -0.012167           
         C60       1.0000    0.13960   0.13480   0.70280   Biso      1.000     C          0.024236  
         C61       1.0000    0.00010   0.90900   0.46310   Biso      1.000     C          -0.102896           
         C62       1.0000    0.89410   0.04190   0.04200   Biso      1.000     C          0.704333  
         C63       1.0000    0.20110   0.70160   0.90090   Biso      1.000     C          0.040097  
         C64       1.0000    0.62460   0.28440   0.23380   Biso      1.000     C          -0.141025           
         C65       1.0000    0.94830   0.86870   0.30840   Biso      1.000     C          0.041077999999999996          
         C66       1.0000    0.01820   0.85840   0.26620   Biso      1.000     C          -0.14     
         C67       1.0000    0.89750   0.89800   0.40090   Biso      1.000     C          0.038551  
         C68       1.0000    0.96900   0.88560   0.36060   Biso      1.000     C          0.026607  
         C69       1.0000    0.26180   0.08320   0.57200   Biso      1.000     C          -0.13738699999999998          
         C70       1.0000    0.84480   0.16620   0.07200   Biso      1.000     C          -0.136404           
         C71       1.0000    0.71150   0.02980   0.17110   Biso      1.000     C          -0.14277  
         C72       1.0000    0.99990   0.09100   0.53690   Biso      1.000     C          -0.102896           
         C73       1.0000    0.10590   0.95810   0.95800   Biso      1.000     C          0.704332  
         C74       1.0000    0.05170   0.13130   0.69160   Biso      1.000     C          0.04108   
         C75       1.0000    0.74620   0.32960   0.13940   Biso      1.000     C          0.024963  
         C76       1.0000    0.15730   0.15290   0.75240   Biso      1.000     C          -0.14258099999999999          
         C77       1.0000    0.21240   0.80270   0.88890   Biso      1.000     C          0.021509999999999998          
         C78       1.0000    0.00000   0.15970   0.78230   Biso      1.000     C          -0.093343           
         C79       1.0000    0.52570   0.95490   0.65440   Biso      1.000     C          0.5846560000000001  
         C80       1.0000    0.05250   0.88420   0.37290   Biso      1.000     C          -0.139921           
         C81       1.0000    0.16500   0.90100   0.43300   Biso      1.000     C          0.61755   
         C82       1.0000    0.79890   0.29840   0.09910   Biso      1.000     C          0.040097  
         C83       1.0000    0.16830   0.92990   0.91660   Biso      1.000     C          -0.045397           
         C84       1.0000    0.86040   0.86520   0.29720   Biso      1.000     C          0.024237  
         H1        1.0000    0.12930   0.08330   0.52120   Biso      1.000     H          0.114863  
         H2        1.0000    0.41660   0.97750   0.74150   Biso      1.000     H          0.11875799999999999           
         H3        1.0000    0.56970   0.89050   0.36180   Biso      1.000     H          0.124518  
         H4        1.0000    0.75080   0.93000   0.46180   Biso      1.000     H          0.131077  
         H5        1.0000    0.01020   0.91620   0.49800   Biso      1.000     H          0.121331  
         H6        1.0000    0.21900   0.15810   0.75850   Biso      1.000     H          0.117843  
         H7        1.0000    0.24920   0.07000   0.53820   Biso      1.000     H          0.131077  
         H8        1.0000    0.95270   0.16960   0.80870   Biso      1.000     H          0.12371800000000001           
         H9        1.0000    0.08040   0.86420   0.27200   Biso      1.000     H          0.11818   
         H10       1.0000    0.75230   0.93150   0.13820   Biso      1.000     H          0.12359300000000001           
         H11       1.0000    0.47830   0.76140   0.69130   Biso      1.000     H          0.124242  
         H12       1.0000    0.90150   0.12680   0.65370   Biso      1.000     H          0.125383  
         H13       1.0000    0.52170   0.23860   0.30870   Biso      1.000     H          0.124242  
         H14       1.0000    0.91960   0.13580   0.72800   Biso      1.000     H          0.11818   
         H15       1.0000    0.87070   0.91670   0.47880   Biso      1.000     H          0.114863  
         H16       1.0000    0.33200   0.01670   0.79450   Biso      1.000     H          0.11645599999999999           
         H17       1.0000    0.09850   0.87320   0.34630   Biso      1.000     H          0.125383  
         H18       1.0000    0.78100   0.84190   0.24150   Biso      1.000     H          0.117843  
         H19       1.0000    0.43030   0.10950   0.63820   Biso      1.000     H          0.124518  
         H20       1.0000    0.08580   0.49180   0.99800   Biso      1.000     H          0.121723  
         H21       1.0000    0.36380   0.64760   0.77200   Biso      1.000     H          0.119052  
         H22       1.0000    0.89550   0.34950   0.02120   Biso      1.000     H          0.113879  
         H23       1.0000    0.24770   0.06850   0.86180   Biso      1.000     H          0.12359300000000001           
         H24       1.0000    0.10450   0.65050   0.97880   Biso      1.000     H          0.113879  
         H25       1.0000    0.10820   0.78740   0.96180   Biso      1.000     H          0.13056500000000001           
         H26       1.0000    0.91420   0.50820   0.00200   Biso      1.000     H          0.121723  
         H27       1.0000    0.98980   0.08380   0.50200   Biso      1.000     H          0.121331  
         H28       1.0000    0.04730   0.83040   0.19130   Biso      1.000     H          0.12371900000000001           
         H29       1.0000    0.71950   0.44480   0.15370   Biso      1.000     H          0.126023  
         H30       1.0000    0.31120   0.12650   0.70550   Biso      1.000     H          0.11533   
         H31       1.0000    0.66800   0.98330   0.20550   Biso      1.000     H          0.11645599999999999           
         H32       1.0000    0.89180   0.21260   0.03820   Biso      1.000     H          0.13056500000000001           
         H33       1.0000    0.58340   0.02250   0.25850   Biso      1.000     H          0.11875799999999999           
         H34       1.0000    0.68880   0.87350   0.29450   Biso      1.000     H          0.11533   
         H35       1.0000    0.63620   0.35240   0.22800   Biso      1.000     H          0.119052  
         H36       1.0000    0.28050   0.55520   0.84630   Biso      1.000     H          0.126022  
         O1        1.0000    0.44550   0.95080   0.35270   Biso      1.000     O          -0.624099           
         O2        1.0000    0.80350   0.79820   0.14730   Biso      1.000     O          -0.6238239999999999           
         O3        1.0000    0.86868   0.94860   0.04712   Biso      1.000     O          -0.74969  
         O4        1.0000    0.18270   0.91310   0.47660   Biso      1.000     O          -0.6693319999999999           
         O5        1.0000    0.11030   0.34070   0.97660   Biso      1.000     O          -0.670672           
         O6        1.0000    0.44060   0.07860   0.38600   Biso      1.000     O          -0.632037           
         O7        1.0000    0.13132   0.05140   0.95288   Biso      1.000     O          -0.74969  
         O8        1.0000    0.49572   0.91580   0.45288   Biso      1.000     O          -0.749038           
         O9        1.0000    0.77370   0.11350   0.60220   Biso      1.000     O          -0.686403           
         O10       1.0000    0.22630   0.88650   0.39780   Biso      1.000     O          -0.686403           
         O11       1.0000    0.03540   0.17340   0.88600   Biso      1.000     O          -0.632191           
         O12       1.0000    0.81730   0.08690   0.52340   Biso      1.000     O          -0.6693319999999999           
         O13       1.0000    0.38860   0.03610   0.50170   Biso      1.000     O          -0.663514           
         O14       1.0000    0.19650   0.20180   0.85270   Biso      1.000     O          -0.6238239999999999           
         O15       1.0000    0.55940   0.92140   0.61400   Biso      1.000     O          -0.632037           
         O16       1.0000    0.61140   0.96390   0.49830   Biso      1.000     O          -0.663514           
         O17       1.0000    0.88970   0.65930   0.02340   Biso      1.000     O          -0.670672           
         O18       1.0000    0.03780   0.89030   0.99830   Biso      1.000     O          -0.663734           
         O19       1.0000    0.96460   0.82660   0.11400   Biso      1.000     O          -0.632191           
         O20       1.0000    0.78430   0.62410   0.10220   Biso      1.000     O          -0.686929           
         O21       1.0000    0.55450   0.04920   0.64730   Biso      1.000     O          -0.624099           
         O22       1.0000    0.96220   0.10970   0.00170   Biso      1.000     O          -0.663734           
         O23       1.0000    0.50428   0.08420   0.54712   Biso      1.000     O          -0.749038           
         O24       1.0000    0.21570   0.37590   0.89780   Biso      1.000     O          -0.68693  
         Tb1       1.0000    0.65117   0.08430   0.55097   Biso      1.000     Tb          2.0325599999999997  
         Tb2       1.0000    0.86473   0.79786   0.05097   Biso      1.000     Tb          2.031965  
         Tb3       1.0000    0.13527   0.20214   0.94903   Biso      1.000     Tb          2.031965  
         Tb4       1.0000    0.34883   0.91570   0.44903   Biso      1.000     Tb          2.0325599999999997 