
##########################################################################
#               Crystallographic Information Format file
#               Produced by PyCifRW module
#
#  This is a CIF file.  CIF has been adopted by the International
#  Union of Crystallography as the standard for data archiving and
#  transmission.
#
#  For information on this file format, follow the CIF links at
#  http://www.iucr.org
##########################################################################

data_image0

_cell_length_a                          7.2075
_cell_length_b                          10.7562
_cell_length_c                          17.218
_cell_angle_alpha                       97.072
_cell_angle_beta                        90
_cell_angle_gamma                       90
_symmetry_space_group_name_H-M          'P 1'
_symmetry_int_tables_number             1
loop_
  _symmetry_equiv_pos_as_xyz
         'x, y, z' 
loop_
  _atom_site_label
  _atom_site_occupancy
  _atom_site_fract_x
  _atom_site_fract_y
  _atom_site_fract_z
  _atom_site_thermal_displace_type
  _atom_site_B_iso_or_equiv
  _atom_site_type_symbol
  _atom_site_charge
         C1        1.0000    0.68180   0.37750   0.42190   Biso      1.000     C          0.6072609999999999  
         C2        1.0000    0.07090   0.45270   0.56670   Biso      1.000     C          -0.0040409999999999995        
         C3        1.0000    0.31820   0.62250   0.57810   Biso      1.000     C          0.607262  
         C4        1.0000    0.15790   0.55260   0.53670   Biso      1.000     C          -0.03512  
         C5        1.0000    0.08780   0.59920   0.47020   Biso      1.000     C          -0.126522           
         C6        1.0000    0.67180   0.08400   0.64810   Biso      1.000     C          0.5765560000000001  
         C7        1.0000    0.24950   0.09460   0.62540   Biso      1.000     C          0.58654   
         C8        1.0000    0.38250   0.04810   0.56190   Biso      1.000     C          -0.032768           
         C9        1.0000    0.14850   0.39210   0.63380   Biso      1.000     C          0.58799   
         C10       1.0000    0.57460   0.04240   0.57290   Biso      1.000     C          0.011206  
         C11       1.0000    0.64850   0.10790   0.86620   Biso      1.000     C          0.587963  
         C12       1.0000    0.57090   0.04730   0.93330   Biso      1.000     C          -0.00404  
         C13       1.0000    0.81820   0.87750   0.92190   Biso      1.000     C          0.607262  
         C14       1.0000    0.65790   0.94740   0.96330   Biso      1.000     C          -0.035117           
         C15       1.0000    0.58780   0.90080   0.02980   Biso      1.000     C          -0.126526           
         C16       1.0000    0.82820   0.58400   0.14810   Biso      1.000     C          0.576555  
         C17       1.0000    0.25050   0.59460   0.12540   Biso      1.000     C          0.586548  
         C18       1.0000    0.31140   0.00480   0.48860   Biso      1.000     C          -0.11208  
         C19       1.0000    0.81140   0.49520   0.01140   Biso      1.000     C          -0.112081           
         C20       1.0000    0.07460   0.45760   0.92710   Biso      1.000     C          0.011203  
         C21       1.0000    0.88250   0.45190   0.93810   Biso      1.000     C          -0.032769           
         C22       1.0000    0.41220   0.09920   0.97020   Biso      1.000     C          -0.126522           
         C23       1.0000    0.34210   0.05260   0.03670   Biso      1.000     C          -0.03512  
         C24       1.0000    0.18180   0.12250   0.07810   Biso      1.000     C          0.607263  
         C25       1.0000    0.42910   0.95270   0.06670   Biso      1.000     C          -0.004043           
         C26       1.0000    0.35150   0.89210   0.13380   Biso      1.000     C          0.588005  
         C27       1.0000    0.68860   0.99520   0.51140   Biso      1.000     C          -0.11208  
         C28       1.0000    0.42540   0.95760   0.42710   Biso      1.000     C          0.011205  
         C29       1.0000    0.61750   0.95190   0.43810   Biso      1.000     C          -0.032767000000000004         
         C30       1.0000    0.75050   0.90540   0.37460   Biso      1.000     C          0.586557  
         C31       1.0000    0.32820   0.91600   0.35190   Biso      1.000     C          0.5765710000000001  
         C32       1.0000    0.91220   0.40080   0.52980   Biso      1.000     C          -0.126525           
         C33       1.0000    0.84210   0.44740   0.46330   Biso      1.000     C          -0.035115           
         C34       1.0000    0.92910   0.54730   0.43330   Biso      1.000     C          -0.004043           
         C35       1.0000    0.85150   0.60790   0.36620   Biso      1.000     C          0.587983  
         C36       1.0000    0.18860   0.50480   0.98860   Biso      1.000     C          -0.11208299999999999          
         C37       1.0000    0.17180   0.41600   0.85190   Biso      1.000     C          0.576572  
         C38       1.0000    0.74950   0.40540   0.87460   Biso      1.000     C          0.586545  
         C39       1.0000    0.11750   0.54810   0.06190   Biso      1.000     C          -0.032766           
         C40       1.0000    0.92540   0.54240   0.07290   Biso      1.000     C          0.011207  
         Eu1       1.0000    0.48036   0.32562   0.75305   Biso      1.000     Eu          1.368423  
         Eu2       1.0000    0.98036   0.17438   0.74695   Biso      1.000     Eu          1.368425  
         Eu3       1.0000    0.51964   0.67438   0.24695   Biso      1.000     Eu          1.368424  
         Eu4       1.0000    0.01964   0.82562   0.25305   Biso      1.000     Eu          1.368425  
         H1        1.0000    0.35230   0.16520   0.95050   Biso      1.000     H          0.143516  
         H2        1.0000    0.54240   0.67160   0.55960   Biso      1.000     H          0.436482  
         H3        1.0000    0.68390   0.49250   0.01950   Biso      1.000     H          0.136523  
         H4        1.0000    0.14770   0.66520   0.45050   Biso      1.000     H          0.143515  
         H5        1.0000    0.04240   0.82840   0.94040   Biso      1.000     H          0.436483  
         H6        1.0000    0.81610   0.99250   0.51950   Biso      1.000     H          0.136523  
         H7        1.0000    0.64770   0.83480   0.04950   Biso      1.000     H          0.143516  
         H8        1.0000    0.45760   0.32840   0.44040   Biso      1.000     H          0.436482  
         H9        1.0000    0.31610   0.50750   0.98050   Biso      1.000     H          0.136524  
         H10       1.0000    0.85230   0.33480   0.54950   Biso      1.000     H          0.143516  
         H11       1.0000    0.95760   0.17160   0.05960   Biso      1.000     H          0.436483  
         H12       1.0000    0.18390   0.00750   0.48050   Biso      1.000     H          0.136526  
         O1        1.0000    0.68450   0.34640   0.35080   Biso      1.000     O          -0.446989           
         O2        1.0000    0.54840   0.35170   0.46700   Biso      1.000     O          -0.501907           
         O3        1.0000    0.80760   0.70260   0.16980   Biso      1.000     O          -0.577699           
         O4        1.0000    0.18880   0.64380   0.19200   Biso      1.000     O          -0.617581           
         O5        1.0000    0.74810   0.50630   0.18450   Biso      1.000     O          -0.443431           
         O6        1.0000    0.67840   0.61150   0.35760   Biso      1.000     O          -0.523805           
         O7        1.0000    0.91970   0.91780   0.38650   Biso      1.000     O          -0.5320010000000001           
         O8        1.0000    0.18450   0.15360   0.14920   Biso      1.000     O          -0.44699300000000003          
         O9        1.0000    0.04840   0.14830   0.03300   Biso      1.000     O          -0.501905           
         O10       1.0000    0.30760   0.79740   0.33020   Biso      1.000     O          -0.577705           
         O11       1.0000    0.68880   0.85620   0.30800   Biso      1.000     O          -0.617585           
         O12       1.0000    0.41970   0.58220   0.11350   Biso      1.000     O          -0.531987           
         O13       1.0000    0.24810   0.99370   0.31550   Biso      1.000     O          -0.443442           
         O14       1.0000    0.96770   0.65560   0.32420   Biso      1.000     O          -0.5005609999999999           
         O15       1.0000    0.53230   0.15560   0.82420   Biso      1.000     O          -0.5005430000000001           
         O16       1.0000    0.08030   0.08220   0.61350   Biso      1.000     O          -0.531987           
         O17       1.0000    0.75190   0.00630   0.68450   Biso      1.000     O          -0.443428           
         O18       1.0000    0.31120   0.14380   0.69200   Biso      1.000     O          -0.617594           
         O19       1.0000    0.69240   0.20260   0.66980   Biso      1.000     O          -0.577699           
         O20       1.0000    0.95160   0.85170   0.96700   Biso      1.000     O          -0.501907           
         O21       1.0000    0.81550   0.84640   0.85080   Biso      1.000     O          -0.44698999999999994          
         O22       1.0000    0.03230   0.34440   0.67580   Biso      1.000     O          -0.5005649999999999           
         O23       1.0000    0.32160   0.38850   0.64240   Biso      1.000     O          -0.523803           
         O24       1.0000    0.25190   0.49370   0.81550   Biso      1.000     O          -0.443441           
         O25       1.0000    0.81120   0.35620   0.80800   Biso      1.000     O          -0.617587           
         O26       1.0000    0.19240   0.29740   0.83020   Biso      1.000     O          -0.577706           
         O27       1.0000    0.45160   0.64830   0.53300   Biso      1.000     O          -0.501905           
         O28       1.0000    0.31550   0.65360   0.64920   Biso      1.000     O          -0.446992           
         O29       1.0000    0.58030   0.41780   0.88650   Biso      1.000     O          -0.531989           
         O30       1.0000    0.17840   0.88850   0.14240   Biso      1.000     O          -0.523821           
         O31       1.0000    0.82160   0.11150   0.85760   Biso      1.000     O          -0.5237850000000001           
         O32       1.0000    0.46770   0.84440   0.17580   Biso      1.000     O          -0.500578 