
##########################################################################
#               Crystallographic Information Format file
#               Produced by PyCifRW module
#
#  This is a CIF file.  CIF has been adopted by the International
#  Union of Crystallography as the standard for data archiving and
#  transmission.
#
#  For information on this file format, follow the CIF links at
#  http://www.iucr.org
##########################################################################

data_image0

_cell_length_a                          7.1693
_cell_length_b                          10.7246
_cell_length_c                          17.158
_cell_angle_alpha                       97.109
_cell_angle_beta                        90
_cell_angle_gamma                       90
_symmetry_space_group_name_H-M          'P 1'
_symmetry_int_tables_number             1
loop_
  _symmetry_equiv_pos_as_xyz
         'x, y, z' 
loop_
  _atom_site_label
  _atom_site_occupancy
  _atom_site_fract_x
  _atom_site_fract_y
  _atom_site_fract_z
  _atom_site_thermal_displace_type
  _atom_site_B_iso_or_equiv
  _atom_site_type_symbol
  _atom_site_charge
         C1        1.0000    0.18060   0.62030   0.57780   Biso      1.000     C          0.497331  
         C2        1.0000    0.07170   0.95200   0.06770   Biso      1.000     C          -0.011877           
         C3        1.0000    0.16110   0.05310   0.03610   Biso      1.000     C          0.009895  
         C4        1.0000    0.14750   0.88910   0.13590   Biso      1.000     C          0.669294  
         C5        1.0000    0.31940   0.12030   0.07780   Biso      1.000     C          0.497327  
         C6        1.0000    0.11800   0.04950   0.56220   Biso      1.000     C          -0.029648           
         C7        1.0000    0.92420   0.04060   0.57410   Biso      1.000     C          -0.001957           
         C8        1.0000    0.25150   0.09510   0.62670   Biso      1.000     C          0.630963  
         C9        1.0000    0.82760   0.08600   0.64880   Biso      1.000     C          0.632401  
         C10       1.0000    0.58920   0.40160   0.52990   Biso      1.000     C          -0.106551           
         C11       1.0000    0.42830   0.45200   0.56770   Biso      1.000     C          -0.011877           
         C12       1.0000    0.91080   0.90160   0.02990   Biso      1.000     C          -0.106549           
         C13       1.0000    0.33890   0.55310   0.53610   Biso      1.000     C          0.009894  
         C14       1.0000    0.68730   0.49310   0.01110   Biso      1.000     C          -0.104002           
         C15       1.0000    0.61800   0.45050   0.93780   Biso      1.000     C          -0.029646           
         C16       1.0000    0.42420   0.45940   0.92590   Biso      1.000     C          -0.001959           
         C17       1.0000    0.75150   0.40490   0.87330   Biso      1.000     C          0.630963  
         C18       1.0000    0.32760   0.41400   0.85120   Biso      1.000     C          0.632401  
         C19       1.0000    0.08920   0.09840   0.97010   Biso      1.000     C          -0.106546           
         C20       1.0000    0.92830   0.04800   0.93230   Biso      1.000     C          -0.011876           
         C21       1.0000    0.83890   0.94690   0.96390   Biso      1.000     C          0.009898  
         C22       1.0000    0.85250   0.11090   0.86410   Biso      1.000     C          0.669292  
         C23       1.0000    0.68060   0.87970   0.92220   Biso      1.000     C          0.497331  
         C24       1.0000    0.35250   0.38910   0.63590   Biso      1.000     C          0.669293  
         C25       1.0000    0.67240   0.58600   0.14880   Biso      1.000     C          0.632401  
         C26       1.0000    0.18730   0.00690   0.48890   Biso      1.000     C          -0.103997           
         C27       1.0000    0.57580   0.54060   0.07410   Biso      1.000     C          -0.001957           
         C28       1.0000    0.81270   0.99310   0.51110   Biso      1.000     C          -0.103999           
         C29       1.0000    0.88200   0.95050   0.43780   Biso      1.000     C          -0.029645           
         C30       1.0000    0.07580   0.95940   0.42590   Biso      1.000     C          -0.001957           
         C31       1.0000    0.74850   0.90490   0.37330   Biso      1.000     C          0.630963  
         C32       1.0000    0.17240   0.91400   0.35120   Biso      1.000     C          0.632401  
         C33       1.0000    0.24850   0.59510   0.12670   Biso      1.000     C          0.630963  
         C34       1.0000    0.41080   0.59840   0.47010   Biso      1.000     C          -0.106547           
         C35       1.0000    0.66110   0.44690   0.46390   Biso      1.000     C          0.0099    
         C36       1.0000    0.64750   0.61090   0.36410   Biso      1.000     C          0.669291  
         C37       1.0000    0.81940   0.37970   0.42220   Biso      1.000     C          0.49733   
         C38       1.0000    0.31270   0.50690   0.98890   Biso      1.000     C          -0.104    
         C39       1.0000    0.38200   0.54950   0.06220   Biso      1.000     C          -0.029646           
         C40       1.0000    0.57170   0.54800   0.43230   Biso      1.000     C          -0.011879           
         H1        1.0000    0.68450   0.99010   0.51880   Biso      1.000     H          0.134808  
         H2        1.0000    0.35020   0.66450   0.45040   Biso      1.000     H          0.136847  
         H3        1.0000    0.18450   0.50990   0.98120   Biso      1.000     H          0.134807  
         H4        1.0000    0.31550   0.00990   0.48120   Biso      1.000     H          0.134807  
         H5        1.0000    0.85020   0.83550   0.04960   Biso      1.000     H          0.136849  
         H6        1.0000    0.81550   0.49010   0.01880   Biso      1.000     H          0.134807  
         H7        1.0000    0.14980   0.16450   0.95040   Biso      1.000     H          0.136848  
         H8        1.0000    0.64980   0.33550   0.54960   Biso      1.000     H          0.136848  
         O1        1.0000    0.45600   0.15030   0.03230   Biso      1.000     O          -0.283154           
         O2        1.0000    0.42390   0.08360   0.61390   Biso      1.000     O          -0.588573           
         O3        1.0000    0.19040   0.14650   0.69170   Biso      1.000     O          -0.736209           
         O4        1.0000    0.80800   0.20510   0.67010   Biso      1.000     O          -0.764394           
         O5        1.0000    0.74790   0.00620   0.68500   Biso      1.000     O          -0.557542           
         O6        1.0000    0.47120   0.34520   0.67630   Biso      1.000     O          -0.643704           
         O7        1.0000    0.17880   0.38610   0.64320   Biso      1.000     O          -0.664518           
         O8        1.0000    0.04400   0.65030   0.53230   Biso      1.000     O          -0.28316  
         O9        1.0000    0.92390   0.41640   0.88610   Biso      1.000     O          -0.588574           
         O10       1.0000    0.69040   0.35350   0.80830   Biso      1.000     O          -0.736209           
         O11       1.0000    0.67880   0.11390   0.85680   Biso      1.000     O          -0.664517           
         O12       1.0000    0.97120   0.15480   0.82370   Biso      1.000     O          -0.643703           
         O13       1.0000    0.24790   0.49380   0.81500   Biso      1.000     O          -0.557542           
         O14       1.0000    0.31940   0.15200   0.14950   Biso      1.000     O          -0.311517           
         O15       1.0000    0.30800   0.29490   0.82990   Biso      1.000     O          -0.764396           
         O16       1.0000    0.18060   0.65200   0.64950   Biso      1.000     O          -0.311523           
         O17       1.0000    0.32120   0.88610   0.14320   Biso      1.000     O          -0.664518           
         O18       1.0000    0.54400   0.84970   0.96770   Biso      1.000     O          -0.28318  
         O19       1.0000    0.75210   0.50620   0.18500   Biso      1.000     O          -0.557543           
         O20       1.0000    0.68060   0.84800   0.85050   Biso      1.000     O          -0.311503           
         O21       1.0000    0.57610   0.91640   0.38610   Biso      1.000     O          -0.588573           
         O22       1.0000    0.80960   0.85350   0.30830   Biso      1.000     O          -0.736209           
         O23       1.0000    0.19200   0.79490   0.32990   Biso      1.000     O          -0.764394           
         O24       1.0000    0.02880   0.84520   0.17630   Biso      1.000     O          -0.643703           
         O25       1.0000    0.52880   0.65480   0.32370   Biso      1.000     O          -0.643704           
         O26       1.0000    0.25210   0.99380   0.31500   Biso      1.000     O          -0.557542           
         O27       1.0000    0.81940   0.34800   0.35050   Biso      1.000     O          -0.311512           
         O28       1.0000    0.95600   0.34970   0.46770   Biso      1.000     O          -0.283173           
         O29       1.0000    0.07610   0.58360   0.11390   Biso      1.000     O          -0.588574           
         O30       1.0000    0.30960   0.64650   0.19170   Biso      1.000     O          -0.736208           
         O31       1.0000    0.69200   0.70510   0.17010   Biso      1.000     O          -0.764396           
         O32       1.0000    0.82120   0.61390   0.35680   Biso      1.000     O          -0.664517           
         Tb1       1.0000    0.02005   0.32429   0.75327   Biso      1.000     Tb          2.09211   
         Tb2       1.0000    0.52005   0.17571   0.74673   Biso      1.000     Tb          2.092111  
         Tb3       1.0000    0.97995   0.67571   0.24673   Biso      1.000     Tb          2.092108  
         Tb4       1.0000    0.47995   0.82429   0.25327   Biso      1.000     Tb          2.092114 