
##########################################################################
#               Crystallographic Information Format file
#               Produced by PyCifRW module
#
#  This is a CIF file.  CIF has been adopted by the International
#  Union of Crystallography as the standard for data archiving and
#  transmission.
#
#  For information on this file format, follow the CIF links at
#  http://www.iucr.org
##########################################################################

data_image0

_cell_length_a                          7.168
_cell_length_b                          10.723
_cell_length_c                          17.155
_cell_angle_alpha                       97.079
_cell_angle_beta                        90
_cell_angle_gamma                       90
_symmetry_space_group_name_H-M          'P 1'
_symmetry_int_tables_number             1
loop_
  _symmetry_equiv_pos_as_xyz
         'x, y, z' 
loop_
  _atom_site_label
  _atom_site_occupancy
  _atom_site_fract_x
  _atom_site_fract_y
  _atom_site_fract_z
  _atom_site_thermal_displace_type
  _atom_site_B_iso_or_equiv
  _atom_site_type_symbol
  _atom_site_charge
         C1        1.0000    0.18010   0.87810   0.42073   Biso      1.000     C          0.598163  
         C2        1.0000    0.30920   0.99440   0.01189   Biso      1.000     C          -0.10907  
         C3        1.0000    0.14730   0.60840   0.86509   Biso      1.000     C          0.676262  
         C4        1.0000    0.15910   0.44630   0.96323   Biso      1.000     C          -0.032661           
         C5        1.0000    0.31990   0.37810   0.92073   Biso      1.000     C          0.598159  
         C6        1.0000    0.07150   0.54720   0.93327   Biso      1.000     C          -0.032018           
         C7        1.0000    0.25250   0.40440   0.37404   Biso      1.000     C          0.633641  
         C8        1.0000    0.11740   0.45200   0.43832   Biso      1.000     C          -0.039154           
         C9        1.0000    0.92610   0.45800   0.42698   Biso      1.000     C          -0.014631           
         C10       1.0000    0.82670   0.41580   0.35113   Biso      1.000     C          0.636967  
         C11       1.0000    0.19080   0.49440   0.51189   Biso      1.000     C          -0.109072           
         C12       1.0000    0.35270   0.10840   0.36509   Biso      1.000     C          0.676254  
         C13       1.0000    0.67330   0.91580   0.85113   Biso      1.000     C          0.636955  
         C14       1.0000    0.34090   0.94630   0.46323   Biso      1.000     C          -0.032663           
         C15       1.0000    0.42850   0.04720   0.43327   Biso      1.000     C          -0.032018           
         C16       1.0000    0.75250   0.09560   0.12596   Biso      1.000     C          0.633646  
         C17       1.0000    0.61740   0.04800   0.06168   Biso      1.000     C          -0.039162           
         C18       1.0000    0.42610   0.04200   0.07302   Biso      1.000     C          -0.014631           
         C19       1.0000    0.32670   0.08420   0.14887   Biso      1.000     C          0.636955  
         C20       1.0000    0.69080   0.00560   0.98811   Biso      1.000     C          -0.109068           
         C21       1.0000    0.85270   0.39160   0.13491   Biso      1.000     C          0.67628   
         C22       1.0000    0.84090   0.55370   0.03677   Biso      1.000     C          -0.03266  
         C23       1.0000    0.68010   0.62190   0.07927   Biso      1.000     C          0.598158  
         C24       1.0000    0.08980   0.40140   0.02963   Biso      1.000     C          -0.12383  
         C25       1.0000    0.92850   0.45280   0.06673   Biso      1.000     C          -0.032027           
         C26       1.0000    0.58980   0.09860   0.47037   Biso      1.000     C          -0.12383  
         C27       1.0000    0.57390   0.95800   0.92698   Biso      1.000     C          -0.014625           
         C28       1.0000    0.91020   0.59860   0.97037   Biso      1.000     C          -0.123827           
         C29       1.0000    0.24750   0.90440   0.87404   Biso      1.000     C          0.633643  
         C30       1.0000    0.38260   0.95200   0.93832   Biso      1.000     C          -0.039152           
         C31       1.0000    0.74750   0.59560   0.62596   Biso      1.000     C          0.633645  
         C32       1.0000    0.88260   0.54800   0.56168   Biso      1.000     C          -0.03916  
         C33       1.0000    0.07390   0.54200   0.57302   Biso      1.000     C          -0.014629           
         C34       1.0000    0.80920   0.50560   0.48811   Biso      1.000     C          -0.109066           
         C35       1.0000    0.17330   0.58420   0.64887   Biso      1.000     C          0.636959  
         C36       1.0000    0.64730   0.89160   0.63491   Biso      1.000     C          0.676265  
         C37       1.0000    0.65910   0.05370   0.53677   Biso      1.000     C          -0.03266  
         C38       1.0000    0.81990   0.12190   0.57927   Biso      1.000     C          0.598162  
         C39       1.0000    0.41020   0.90140   0.52963   Biso      1.000     C          -0.123829           
         C40       1.0000    0.57150   0.95280   0.56673   Biso      1.000     C          -0.032025           
         H1        1.0000    0.53700   0.30600   0.93800   Biso      1.000     H          0.407373  
         H2        1.0000    0.34400   0.83200   0.55100   Biso      1.000     H          0.132405  
         H3        1.0000    0.03700   0.19400   0.56200   Biso      1.000     H          0.407372  
         H4        1.0000    0.17000   0.98500   0.02300   Biso      1.000     H          0.136348  
         H5        1.0000    0.67000   0.51500   0.47700   Biso      1.000     H          0.136347  
         H6        1.0000    0.33000   0.48500   0.52300   Biso      1.000     H          0.136347  
         H7        1.0000    0.84400   0.66800   0.94900   Biso      1.000     H          0.132406  
         H8        1.0000    0.96300   0.80600   0.43800   Biso      1.000     H          0.407372  
         H9        1.0000    0.83000   0.01500   0.97700   Biso      1.000     H          0.136348  
         H10       1.0000    0.15600   0.33200   0.05100   Biso      1.000     H          0.132403  
         H11       1.0000    0.46300   0.69400   0.06200   Biso      1.000     H          0.407373  
         H12       1.0000    0.65600   0.16800   0.44900   Biso      1.000     H          0.132407  
         O1        1.0000    0.45400   0.35120   0.96748   Biso      1.000     O          -0.485033           
         O2        1.0000    0.42200   0.41520   0.38645   Biso      1.000     O          -0.584505           
         O3        1.0000    0.18990   0.35560   0.30794   Biso      1.000     O          -0.739643           
         O4        1.0000    0.80870   0.29689   0.32936   Biso      1.000     O          -0.771787           
         O5        1.0000    0.74640   0.49367   0.31527   Biso      1.000     O          -0.554011           
         O6        1.0000    0.46920   0.15480   0.32315   Biso      1.000     O          -0.66664  
         O7        1.0000    0.17870   0.11223   0.35660   Biso      1.000     O          -0.680633           
         O8        1.0000    0.92200   0.08480   0.11355   Biso      1.000     O          -0.584536           
         O9        1.0000    0.04600   0.85120   0.46748   Biso      1.000     O          -0.485028           
         O10       1.0000    0.68990   0.14440   0.19206   Biso      1.000     O          -0.739614           
         O11       1.0000    0.67870   0.38777   0.14340   Biso      1.000     O          -0.680663           
         O12       1.0000    0.96920   0.34520   0.17685   Biso      1.000     O          -0.66666  
         O13       1.0000    0.24640   0.00633   0.18473   Biso      1.000     O          -0.553993           
         O14       1.0000    0.31890   0.34680   0.85008   Biso      1.000     O          -0.490952           
         O15       1.0000    0.30870   0.20311   0.17064   Biso      1.000     O          -0.771803           
         O16       1.0000    0.18110   0.84680   0.35008   Biso      1.000     O          -0.490963           
         O17       1.0000    0.32130   0.61223   0.85660   Biso      1.000     O          -0.680625           
         O18       1.0000    0.54600   0.64880   0.03252   Biso      1.000     O          -0.485028           
         O19       1.0000    0.75360   0.99367   0.81527   Biso      1.000     O          -0.554002           
         O20       1.0000    0.68110   0.65320   0.14992   Biso      1.000     O          -0.490955           
         O21       1.0000    0.57800   0.58480   0.61355   Biso      1.000     O          -0.584536           
         O22       1.0000    0.81010   0.64440   0.69206   Biso      1.000     O          -0.73962  
         O23       1.0000    0.19130   0.70311   0.67064   Biso      1.000     O          -0.771802           
         O24       1.0000    0.03080   0.65480   0.82315   Biso      1.000     O          -0.666663           
         O25       1.0000    0.53080   0.84520   0.67685   Biso      1.000     O          -0.666668           
         O26       1.0000    0.25360   0.50633   0.68473   Biso      1.000     O          -0.554006           
         O27       1.0000    0.81890   0.15320   0.64992   Biso      1.000     O          -0.490963           
         O28       1.0000    0.95400   0.14880   0.53252   Biso      1.000     O          -0.485027           
         O29       1.0000    0.07800   0.91520   0.88645   Biso      1.000     O          -0.584539           
         O30       1.0000    0.31010   0.85560   0.80794   Biso      1.000     O          -0.739613           
         O31       1.0000    0.69130   0.79689   0.82936   Biso      1.000     O          -0.771801           
         O32       1.0000    0.82130   0.88777   0.64340   Biso      1.000     O          -0.680626           
         Tb1       1.0000    0.02026   0.17572   0.24673   Biso      1.000     Tb          2.103453  
         Tb2       1.0000    0.52026   0.32428   0.25326   Biso      1.000     Tb          2.103436  
         Tb3       1.0000    0.97974   0.82428   0.75327   Biso      1.000     Tb          2.10345   
         Tb4       1.0000    0.47974   0.67572   0.74673   Biso      1.000     Tb          2.103447 