
##########################################################################
#               Crystallographic Information Format file
#               Produced by PyCifRW module
#
#  This is a CIF file.  CIF has been adopted by the International
#  Union of Crystallography as the standard for data archiving and
#  transmission.
#
#  For information on this file format, follow the CIF links at
#  http://www.iucr.org
##########################################################################

data_image0

_cell_length_a                          9.6739
_cell_length_b                          11.0039
_cell_length_c                          11.5523
_cell_angle_alpha                       104.833
_cell_angle_beta                        91
_cell_angle_gamma                       114.257
_symmetry_space_group_name_H-M          'P 1'
_symmetry_int_tables_number             1
loop_
  _symmetry_equiv_pos_as_xyz
         'x, y, z' 
loop_
  _atom_site_label
  _atom_site_occupancy
  _atom_site_fract_x
  _atom_site_fract_y
  _atom_site_fract_z
  _atom_site_thermal_displace_type
  _atom_site_B_iso_or_equiv
  _atom_site_type_symbol
  _atom_site_charge
         C1        1.0000    0.84710   0.93560   0.94910   Biso      1.000     C          -0.049886           
         C2        1.0000    0.00470   0.60970   0.59280   Biso      1.000     C          -0.096424           
         C3        1.0000    0.14080   0.61770   0.54990   Biso      1.000     C          -0.034536000000000004         
         C4        1.0000    0.28250   0.74980   0.60690   Biso      1.000     C          0.653615  
         C5        1.0000    0.24960   0.97010   0.38240   Biso      1.000     C          0.611491  
         C6        1.0000    0.12030   0.98800   0.44170   Biso      1.000     C          -0.003904           
         C7        1.0000    0.00770   0.13010   0.55410   Biso      1.000     C          -0.109699           
         C8        1.0000    0.12660   0.11930   0.49640   Biso      1.000     C          -0.040316000000000005         
         C9        1.0000    0.25850   0.25360   0.49110   Biso      1.000     C          0.690218  
         C10       1.0000    0.20960   0.88710   0.89720   Biso      1.000     C          0.65195   
         C11       1.0000    0.09890   0.94160   0.95400   Biso      1.000     C          -0.019359           
         C12       1.0000    0.05340   0.12080   0.09530   Biso      1.000     C          -0.119775           
         C13       1.0000    0.15290   0.06440   0.05090   Biso      1.000     C          -0.049883           
         C14       1.0000    0.31410   0.12930   0.11180   Biso      1.000     C          0.7163609999999999  
         C15       1.0000    0.72810   0.49820   0.60090   Biso      1.000     C          0.614341  
         C16       1.0000    0.86560   0.49480   0.54530   Biso      1.000     C          -0.032602           
         C17       1.0000    0.99530   0.39030   0.40720   Biso      1.000     C          -0.096424           
         C18       1.0000    0.85920   0.38230   0.45010   Biso      1.000     C          -0.034537           
         C19       1.0000    0.71750   0.25020   0.39310   Biso      1.000     C          0.653616  
         C20       1.0000    0.68590   0.87070   0.88820   Biso      1.000     C          0.7163609999999999  
         C21       1.0000    0.94660   0.87920   0.90470   Biso      1.000     C          -0.11977  
         C22       1.0000    0.90110   0.05840   0.04600   Biso      1.000     C          -0.019354           
         C23       1.0000    0.79040   0.11290   0.10280   Biso      1.000     C          0.651949  
         C24       1.0000    0.74150   0.74640   0.50890   Biso      1.000     C          0.690218  
         C25       1.0000    0.87340   0.88070   0.50360   Biso      1.000     C          -0.040319           
         C26       1.0000    0.99230   0.86990   0.44590   Biso      1.000     C          -0.109696           
         C27       1.0000    0.87970   0.01200   0.55830   Biso      1.000     C          -0.003904           
         C28       1.0000    0.75040   0.02990   0.61760   Biso      1.000     C          0.611492  
         C29       1.0000    0.13440   0.50520   0.45470   Biso      1.000     C          -0.032602           
         C30       1.0000    0.27190   0.50180   0.39910   Biso      1.000     C          0.614341  
         Er1       1.0000    0.49227   0.99276   0.25353   Biso      1.000     Er          2.08229   
         Er2       1.0000    0.48314   0.57553   0.67001   Biso      1.000     Er          2.200008  
         Er3       1.0000    0.50773   0.00724   0.74647   Biso      1.000     Er          2.08229   
         Er4       1.0000    0.51686   0.42447   0.32999   Biso      1.000     Er          2.200007  
         H1        1.0000    0.91020   0.79780   0.84070   Biso      1.000     H          0.133007  
         H2        1.0000    0.00700   0.68350   0.65530   Biso      1.000     H          0.139285  
         H3        1.0000    0.01260   0.21780   0.59100   Biso      1.000     H          0.133603  
         H4        1.0000    0.08980   0.20220   0.15930   Biso      1.000     H          0.133008  
         H5        1.0000    0.99300   0.31650   0.34470   Biso      1.000     H          0.139285  
         H6        1.0000    0.98740   0.78220   0.40900   Biso      1.000     H          0.133603  
         O1        1.0000    0.61230   0.95190   0.56800   Biso      1.000     O          -0.6777449999999999           
         O2        1.0000    0.40120   0.55330   0.46640   Biso      1.000     O          -0.79415  
         O3        1.0000    0.25780   0.44160   0.29030   Biso      1.000     O          -0.5669770000000001           
         O4        1.0000    0.62870   0.94980   0.87350   Biso      1.000     O          -0.674458           
         O5        1.0000    0.68630   0.74180   0.60530   Biso      1.000     O          -0.616629           
         O6        1.0000    0.68120   0.02900   0.14010   Biso      1.000     O          -0.7675069999999999           
         O7        1.0000    0.81680   0.23630   0.11320   Biso      1.000     O          -0.562864           
         O8        1.0000    0.70460   0.64650   0.41240   Biso      1.000     O          -0.747496           
         O9        1.0000    0.39440   0.74900   0.66680   Biso      1.000     O          -0.760454           
         O10       1.0000    0.61640   0.73880   0.85060   Biso      1.000     O          -0.730754           
         O11       1.0000    0.28280   0.86120   0.60150   Biso      1.000     O          -0.576741           
         O12       1.0000    0.18320   0.76370   0.88680   Biso      1.000     O          -0.562864           
         O13       1.0000    0.38770   0.04810   0.43200   Biso      1.000     O          -0.6777449999999999           
         O14       1.0000    0.31370   0.25820   0.39470   Biso      1.000     O          -0.616629           
         O15       1.0000    0.29540   0.35350   0.58760   Biso      1.000     O          -0.7474970000000001           
         O16       1.0000    0.31880   0.97100   0.85990   Biso      1.000     O          -0.7675069999999999           
         O17       1.0000    0.38360   0.26120   0.14940   Biso      1.000     O          -0.730753           
         O18       1.0000    0.37130   0.05020   0.12650   Biso      1.000     O          -0.674459           
         O19       1.0000    0.74220   0.55840   0.70970   Biso      1.000     O          -0.566976           
         O20       1.0000    0.59880   0.44670   0.53360   Biso      1.000     O          -0.79415  
         O21       1.0000    0.60560   0.25100   0.33320   Biso      1.000     O          -0.760454           
         O22       1.0000    0.71720   0.13880   0.39850   Biso      1.000     O          -0.576741           
         O23       1.0000    0.22360   0.87970   0.28300   Biso      1.000     O          -0.643899           
         O24       1.0000    0.77640   0.12030   0.71700   Biso      1.000     O          -0.643899 