
##########################################################################
#               Crystallographic Information Format file
#               Produced by PyCifRW module
#
#  This is a CIF file.  CIF has been adopted by the International
#  Union of Crystallography as the standard for data archiving and
#  transmission.
#
#  For information on this file format, follow the CIF links at
#  http://www.iucr.org
##########################################################################

data_image0

_cell_length_a                          6.6008
_cell_length_b                          12.825
_cell_length_c                          13.31
_cell_angle_alpha                       90
_cell_angle_beta                        103.63
_cell_angle_gamma                       90
_symmetry_space_group_name_H-M          'P 1'
_symmetry_int_tables_number             1
loop_
  _symmetry_equiv_pos_as_xyz
         'x, y, z' 
loop_
  _atom_site_label
  _atom_site_occupancy
  _atom_site_fract_x
  _atom_site_fract_y
  _atom_site_fract_z
  _atom_site_thermal_displace_type
  _atom_site_B_iso_or_equiv
  _atom_site_type_symbol
  _atom_site_charge
         C1        1.0000    0.97520   0.77690   0.15400   Biso      1.000     C          0.654127  
         C2        1.0000    0.36280   0.61790   0.98890   Biso      1.000     C          0.080598  
         C3        1.0000    0.40300   0.71340   0.03900   Biso      1.000     C          -0.090025           
         C4        1.0000    0.37970   0.80230   0.98010   Biso      1.000     C          -0.078183           
         C5        1.0000    0.31670   0.79380   0.87370   Biso      1.000     C          -0.059998           
         C6        1.0000    0.28530   0.69600   0.83040   Biso      1.000     C          0.062451  
         C7        1.0000    0.47520   0.72310   0.15400   Biso      1.000     C          0.654128  
         C8        1.0000    0.28800   0.89050   0.80960   Biso      1.000     C          0.575876  
         C9        1.0000    0.60090   0.50590   0.48050   Biso      1.000     C          0.517123  
         C10       1.0000    0.89910   0.00590   0.51950   Biso      1.000     C          0.517122  
         C11       1.0000    0.86280   0.88210   0.98890   Biso      1.000     C          0.080597  
         C12       1.0000    0.87970   0.69770   0.98010   Biso      1.000     C          -0.078188           
         C13       1.0000    0.81670   0.70620   0.87370   Biso      1.000     C          -0.059998           
         C14       1.0000    0.78530   0.80400   0.83040   Biso      1.000     C          0.062451  
         C15       1.0000    0.71470   0.30400   0.16960   Biso      1.000     C          0.062452  
         C16       1.0000    0.78800   0.60950   0.80960   Biso      1.000     C          0.575877  
         C17       1.0000    0.10090   0.99410   0.48050   Biso      1.000     C          0.517122  
         C18       1.0000    0.63720   0.38210   0.01110   Biso      1.000     C          0.080597  
         C19       1.0000    0.59700   0.28660   0.96100   Biso      1.000     C          -0.090025           
         C20       1.0000    0.90300   0.78660   0.03900   Biso      1.000     C          -0.09002  
         C21       1.0000    0.21200   0.39050   0.19040   Biso      1.000     C          0.575877  
         C22       1.0000    0.02480   0.22310   0.84600   Biso      1.000     C          0.654128  
         C23       1.0000    0.21470   0.19600   0.16960   Biso      1.000     C          0.062451  
         C24       1.0000    0.39910   0.49410   0.51950   Biso      1.000     C          0.517122  
         C25       1.0000    0.71200   0.10950   0.19040   Biso      1.000     C          0.575878  
         C26       1.0000    0.52480   0.27690   0.84600   Biso      1.000     C          0.654128  
         C27       1.0000    0.62030   0.19770   0.01990   Biso      1.000     C          -0.078183           
         C28       1.0000    0.68330   0.20620   0.12630   Biso      1.000     C          -0.059999           
         C29       1.0000    0.13720   0.11790   0.01110   Biso      1.000     C          0.080597  
         C30       1.0000    0.09700   0.21340   0.96100   Biso      1.000     C          -0.090025           
         C31       1.0000    0.12030   0.30230   0.01990   Biso      1.000     C          -0.078183           
         C32       1.0000    0.18330   0.29380   0.12630   Biso      1.000     C          -0.059998           
         H1        1.0000    0.59410   0.13260   0.98870   Biso      1.000     H          0.13584   
         H2        1.0000    0.62450   0.44230   0.97120   Biso      1.000     H          0.100221  
         H3        1.0000    0.74720   0.80910   0.75870   Biso      1.000     H          0.104793  
         H4        1.0000    0.90590   0.63260   0.01130   Biso      1.000     H          0.13584   
         H5        1.0000    0.24720   0.69090   0.75870   Biso      1.000     H          0.104792  
         H6        1.0000    0.40590   0.86740   0.01130   Biso      1.000     H          0.13584   
         H7        1.0000    0.37550   0.55770   0.02880   Biso      1.000     H          0.10022   
         H8        1.0000    0.25280   0.19090   0.24130   Biso      1.000     H          0.104793  
         H9        1.0000    0.09410   0.36740   0.98870   Biso      1.000     H          0.13584   
         H10       1.0000    0.12450   0.05770   0.97120   Biso      1.000     H          0.10022   
         H11       1.0000    0.75280   0.30910   0.24130   Biso      1.000     H          0.104791  
         H12       1.0000    0.87550   0.94230   0.02880   Biso      1.000     H          0.10022   
         Lu1       1.0000    0.26093   0.07619   0.70552   Biso      1.000     Lu          1.73905   
         Lu2       1.0000    0.76093   0.42381   0.70552   Biso      1.000     Lu          1.739052  
         Lu3       1.0000    0.73907   0.92381   0.29448   Biso      1.000     Lu          1.739052  
         Lu4       1.0000    0.23907   0.57619   0.29448   Biso      1.000     Lu          1.739053  
         N1        1.0000    0.19340   0.10830   0.11450   Biso      1.000     N          -0.255907           
         N2        1.0000    0.30660   0.60830   0.88550   Biso      1.000     N          -0.255907           
         N3        1.0000    0.80660   0.89170   0.88550   Biso      1.000     N          -0.255907           
         N4        1.0000    0.69340   0.39170   0.11450   Biso      1.000     N          -0.255907           
         O1        1.0000    0.04250   0.69040   0.18620   Biso      1.000     O          -0.598139           
         O2        1.0000    0.83300   0.52170   0.85450   Biso      1.000     O          -0.580892           
         O3        1.0000    0.72210   0.61320   0.71260   Biso      1.000     O          -0.573506           
         O4        1.0000    0.07910   0.95480   0.39210   Biso      1.000     O          -0.556295           
         O5        1.0000    0.66700   0.02170   0.14550   Biso      1.000     O          -0.580893           
         O6        1.0000    0.52910   0.35630   0.78830   Biso      1.000     O          -0.620933           
         O7        1.0000    0.45750   0.19040   0.81380   Biso      1.000     O          -0.598138           
         O8        1.0000    0.97090   0.85630   0.21170   Biso      1.000     O          -0.620933           
         O9        1.0000    0.77790   0.11320   0.28740   Biso      1.000     O          -0.573505           
         O10       1.0000    0.26530   0.02330   0.53880   Biso      1.000     O          -0.556204           
         O11       1.0000    0.76530   0.47670   0.53880   Biso      1.000     O          -0.556204           
         O12       1.0000    0.33300   0.97830   0.85450   Biso      1.000     O          -0.580892           
         O13       1.0000    0.22210   0.88680   0.71260   Biso      1.000     O          -0.573504           
         O14       1.0000    0.42090   0.45480   0.60790   Biso      1.000     O          -0.556293           
         O15       1.0000    0.54250   0.80960   0.18620   Biso      1.000     O          -0.598138           
         O16       1.0000    0.47090   0.64370   0.21170   Biso      1.000     O          -0.620933           
         O17       1.0000    0.73470   0.97670   0.46120   Biso      1.000     O          -0.556204           
         O18       1.0000    0.92090   0.04520   0.60790   Biso      1.000     O          -0.556294           
         O19       1.0000    0.27790   0.38680   0.28740   Biso      1.000     O          -0.573505           
         O20       1.0000    0.16700   0.47830   0.14550   Biso      1.000     O          -0.580893           
         O21       1.0000    0.95750   0.30960   0.81380   Biso      1.000     O          -0.598139           
         O22       1.0000    0.02910   0.14370   0.78830   Biso      1.000     O          -0.620932           
         O23       1.0000    0.57910   0.54520   0.39210   Biso      1.000     O          -0.556293           
         O24       1.0000    0.23470   0.52330   0.46120   Biso      1.000     O          -0.556203 