
##########################################################################
#               Crystallographic Information Format file
#               Produced by PyCifRW module
#
#  This is a CIF file.  CIF has been adopted by the International
#  Union of Crystallography as the standard for data archiving and
#  transmission.
#
#  For information on this file format, follow the CIF links at
#  http://www.iucr.org
##########################################################################

data_image0

_cell_length_a                          7.6026
_cell_length_b                          9.7798
_cell_length_c                          14.6423
_cell_angle_alpha                       90
_cell_angle_beta                        98.075
_cell_angle_gamma                       90
_symmetry_space_group_name_H-M          'P 1'
_symmetry_int_tables_number             1
loop_
  _symmetry_equiv_pos_as_xyz
         'x, y, z' 
loop_
  _atom_site_label
  _atom_site_occupancy
  _atom_site_fract_x
  _atom_site_fract_y
  _atom_site_fract_z
  _atom_site_thermal_displace_type
  _atom_site_B_iso_or_equiv
  _atom_site_type_symbol
  _atom_site_charge
         C1        1.0000    0.08680   0.77510   0.49910   Biso      1.000     C          0.634204  
         C2        1.0000    0.95650   0.46810   0.03980   Biso      1.000     C          0.49644099999999997           
         C3        1.0000    0.70180   0.92800   0.91930   Biso      1.000     C          -0.082959           
         C4        1.0000    0.83110   0.11290   0.01170   Biso      1.000     C          0.058208  
         C5        1.0000    0.58680   0.72490   0.99910   Biso      1.000     C          0.634213  
         C6        1.0000    0.72380   0.92980   0.08480   Biso      1.000     C          0.04477   
         C7        1.0000    0.30650   0.36190   0.34120   Biso      1.000     C          0.616641  
         C8        1.0000    0.27830   0.44240   0.42440   Biso      1.000     C          -0.067142           
         C9        1.0000    0.45650   0.03190   0.53980   Biso      1.000     C          0.496449  
         C10       1.0000    0.20180   0.57200   0.41930   Biso      1.000     C          -0.082966           
         C11       1.0000    0.77830   0.05760   0.92440   Biso      1.000     C          -0.067147           
         C12       1.0000    0.33110   0.38710   0.51170   Biso      1.000     C          0.0582    
         C13       1.0000    0.22380   0.57020   0.58480   Biso      1.000     C          0.044756  
         C14       1.0000    0.19350   0.86190   0.15880   Biso      1.000     C          0.61664   
         C15       1.0000    0.22170   0.94240   0.07560   Biso      1.000     C          -0.067139           
         C16       1.0000    0.04350   0.53190   0.96020   Biso      1.000     C          0.496443  
         C17       1.0000    0.29820   0.07200   0.08070   Biso      1.000     C          -0.082967           
         C18       1.0000    0.16890   0.88710   0.98830   Biso      1.000     C          0.058197000000000006          
         C19       1.0000    0.41320   0.27510   0.00090   Biso      1.000     C          0.634209  
         C20       1.0000    0.32820   0.13630   0.99910   Biso      1.000     C          -0.06188300000000001          
         C21       1.0000    0.27620   0.07020   0.91520   Biso      1.000     C          0.044754  
         C22       1.0000    0.17180   0.63630   0.50090   Biso      1.000     C          -0.061884           
         C23       1.0000    0.80650   0.13810   0.84120   Biso      1.000     C          0.616618  
         C24       1.0000    0.67180   0.86370   0.00090   Biso      1.000     C          -0.06188300000000001          
         C25       1.0000    0.82820   0.36370   0.49910   Biso      1.000     C          -0.06188099999999999          
         C26       1.0000    0.91320   0.22490   0.50090   Biso      1.000     C          0.634206  
         C27       1.0000    0.66890   0.61290   0.48830   Biso      1.000     C          0.058209000000000004          
         C28       1.0000    0.79820   0.42800   0.58070   Biso      1.000     C          -0.08295599999999999          
         C29       1.0000    0.54350   0.96810   0.46020   Biso      1.000     C          0.496447  
         C30       1.0000    0.72170   0.55760   0.57560   Biso      1.000     C          -0.067151           
         C31       1.0000    0.69350   0.63810   0.65880   Biso      1.000     C          0.616625  
         C32       1.0000    0.77620   0.42980   0.41520   Biso      1.000     C          0.04477   
         H1        1.0000    0.82870   0.38500   0.63730   Biso      1.000     H          0.139432  
         H2        1.0000    0.61420   0.69820   0.48490   Biso      1.000     H          0.100082  
         H3        1.0000    0.67130   0.88500   0.86270   Biso      1.000     H          0.139435  
         H4        1.0000    0.88580   0.19820   0.01510   Biso      1.000     H          0.10008099999999999           
         H5        1.0000    0.69900   0.88840   0.13870   Biso      1.000     H          0.11421400000000001           
         H6        1.0000    0.17130   0.61500   0.36270   Biso      1.000     H          0.139438  
         H7        1.0000    0.80100   0.38840   0.36130   Biso      1.000     H          0.11421300000000001           
         H8        1.0000    0.38580   0.30180   0.51510   Biso      1.000     H          0.10008600000000001           
         H9        1.0000    0.19900   0.61160   0.63870   Biso      1.000     H          0.11420899999999999           
         H10       1.0000    0.32870   0.11500   0.13730   Biso      1.000     H          0.139442  
         H11       1.0000    0.11420   0.80180   0.98490   Biso      1.000     H          0.100084  
         H12       1.0000    0.30100   0.11160   0.86130   Biso      1.000     H          0.11420899999999999           
         N1        1.0000    0.19140   0.94840   0.90900   Biso      1.000     N          -0.192055           
         N2        1.0000    0.30860   0.44840   0.59100   Biso      1.000     N          -0.19205999999999998          
         N3        1.0000    0.69140   0.55160   0.40900   Biso      1.000     N          -0.19205899999999998          
         N4        1.0000    0.80860   0.05160   0.09100   Biso      1.000     N          -0.19206099999999998          
         O1        1.0000    0.19590   0.92130   0.23450   Biso      1.000     O          -0.5410739999999999           
         O2        1.0000    0.16900   0.73360   0.14779   Biso      1.000     O          -0.5831529999999999           
         O3        1.0000    0.20390   0.56490   0.97910   Biso      1.000     O          -0.43766400000000005          
         O4        1.0000    0.51440   0.69070   0.06750   Biso      1.000     O          -0.6032689999999999           
         O5        1.0000    0.55300   0.04440   0.61600   Biso      1.000     O          -0.445557           
         O6        1.0000    0.01440   0.80930   0.56750   Biso      1.000     O          -0.603282           
         O7        1.0000    0.09590   0.84800   0.42930   Biso      1.000     O          -0.554585           
         O8        1.0000    0.30410   0.42130   0.26550   Biso      1.000     O          -0.541076           
         O9        1.0000    0.29610   0.06490   0.52090   Biso      1.000     O          -0.43768100000000004          
         O10       1.0000    0.33100   0.23360   0.35221   Biso      1.000     O          -0.583142           
         O11       1.0000    0.05300   0.45560   0.11600   Biso      1.000     O          -0.445525           
         O12       1.0000    0.40410   0.34800   0.07070   Biso      1.000     O          -0.554593           
         O13       1.0000    0.59590   0.65200   0.92930   Biso      1.000     O          -0.554619           
         O14       1.0000    0.94700   0.54440   0.88400   Biso      1.000     O          -0.44555200000000006          
         O15       1.0000    0.79610   0.43510   0.02090   Biso      1.000     O          -0.43766499999999997          
         O16       1.0000    0.83100   0.26640   0.85221   Biso      1.000     O          -0.5830529999999999           
         O17       1.0000    0.44700   0.95560   0.38400   Biso      1.000     O          -0.445528           
         O18       1.0000    0.98560   0.19070   0.43250   Biso      1.000     O          -0.603263           
         O19       1.0000    0.90410   0.15200   0.57070   Biso      1.000     O          -0.554604           
         O20       1.0000    0.69590   0.57870   0.73450   Biso      1.000     O          -0.54104  
         O21       1.0000    0.70390   0.93510   0.47910   Biso      1.000     O          -0.437684           
         O22       1.0000    0.66900   0.76640   0.64779   Biso      1.000     O          -0.583055           
         O23       1.0000    0.48560   0.30930   0.93250   Biso      1.000     O          -0.6032890000000001           
         O24       1.0000    0.80410   0.07870   0.76550   Biso      1.000     O          -0.54103  
         Yb1       1.0000    0.34802   0.54562   0.13835   Biso      1.000     Yb          1.365318  
         Yb2       1.0000    0.15198   0.04562   0.36165   Biso      1.000     Yb          1.365319  
         Yb3       1.0000    0.65198   0.45438   0.86165   Biso      1.000     Yb          1.3653030000000002  
         Yb4       1.0000    0.84802   0.95438   0.63835   Biso      1.000     Yb          1.36531 