
##########################################################################
#               Crystallographic Information Format file
#               Produced by PyCifRW module
#
#  This is a CIF file.  CIF has been adopted by the International
#  Union of Crystallography as the standard for data archiving and
#  transmission.
#
#  For information on this file format, follow the CIF links at
#  http://www.iucr.org
##########################################################################

data_image0

_cell_length_a                          7.5716
_cell_length_b                          9.7891
_cell_length_c                          14.6702
_cell_angle_alpha                       90
_cell_angle_beta                        97.933
_cell_angle_gamma                       90
_symmetry_space_group_name_H-M          'P 1'
_symmetry_int_tables_number             1
loop_
  _symmetry_equiv_pos_as_xyz
         'x, y, z' 
loop_
  _atom_site_label
  _atom_site_occupancy
  _atom_site_fract_x
  _atom_site_fract_y
  _atom_site_fract_z
  _atom_site_thermal_displace_type
  _atom_site_B_iso_or_equiv
  _atom_site_type_symbol
  _atom_site_charge
         C1        1.0000    0.08730   0.27450   0.49942   Biso      1.000     C          0.727409  
         C2        1.0000    0.70090   0.42920   0.91970   Biso      1.000     C          -0.070113           
         C3        1.0000    0.95590   0.96880   0.03988   Biso      1.000     C          0.517066  
         C4        1.0000    0.83270   0.61360   0.01224   Biso      1.000     C          0.081274  
         C5        1.0000    0.58730   0.22550   0.99942   Biso      1.000     C          0.727409  
         C6        1.0000    0.72580   0.42940   0.08460   Biso      1.000     C          0.057727999999999995          
         C7        1.0000    0.27910   0.94120   0.42508   Biso      1.000     C          -0.08634  
         C8        1.0000    0.30710   0.86040   0.34155   Biso      1.000     C          0.6857810000000001  
         C9        1.0000    0.20090   0.07080   0.41970   Biso      1.000     C          -0.070113           
         C10       1.0000    0.45590   0.53120   0.53988   Biso      1.000     C          0.517066  
         C11       1.0000    0.80710   0.63960   0.84155   Biso      1.000     C          0.6857810000000001  
         C12       1.0000    0.33270   0.88640   0.51224   Biso      1.000     C          0.081275  
         C13       1.0000    0.22580   0.07060   0.58460   Biso      1.000     C          0.057727999999999995          
         C14       1.0000    0.22090   0.44120   0.07492   Biso      1.000     C          -0.08634  
         C15       1.0000    0.19290   0.36040   0.15845   Biso      1.000     C          0.6857810000000001  
         C16       1.0000    0.29910   0.57080   0.08030   Biso      1.000     C          -0.070112           
         C17       1.0000    0.04410   0.03120   0.96012   Biso      1.000     C          0.517066  
         C18       1.0000    0.16730   0.38640   0.98776   Biso      1.000     C          0.081275  
         C19       1.0000    0.41270   0.77450   0.00058   Biso      1.000     C          0.727409  
         C20       1.0000    0.32770   0.63510   0.99876   Biso      1.000     C          -0.071909           
         C21       1.0000    0.27420   0.57060   0.91540   Biso      1.000     C          0.05773   
         C22       1.0000    0.17230   0.13510   0.50124   Biso      1.000     C          -0.071908           
         C23       1.0000    0.77910   0.55880   0.92508   Biso      1.000     C          -0.08634  
         C24       1.0000    0.67230   0.36490   0.00124   Biso      1.000     C          -0.071908           
         C25       1.0000    0.82770   0.86490   0.49876   Biso      1.000     C          -0.071909           
         C26       1.0000    0.91270   0.72550   0.50058   Biso      1.000     C          0.727409  
         C27       1.0000    0.66730   0.11360   0.48776   Biso      1.000     C          0.081275  
         C28       1.0000    0.54410   0.46880   0.46012   Biso      1.000     C          0.517066  
         C29       1.0000    0.79910   0.92920   0.58030   Biso      1.000     C          -0.070112           
         C30       1.0000    0.69290   0.13960   0.65845   Biso      1.000     C          0.6857810000000001  
         C31       1.0000    0.72090   0.05880   0.57492   Biso      1.000     C          -0.08634  
         C32       1.0000    0.77420   0.92940   0.41540   Biso      1.000     C          0.05773   
         H1        1.0000    0.83120   0.88680   0.63690   Biso      1.000     H          0.132251  
         H2        1.0000    0.61260   0.19880   0.48420   Biso      1.000     H          0.10167799999999999           
         H3        1.0000    0.66880   0.38680   0.86310   Biso      1.000     H          0.132251  
         H4        1.0000    0.88740   0.69880   0.01580   Biso      1.000     H          0.10167799999999999           
         H5        1.0000    0.70250   0.38700   0.13850   Biso      1.000     H          0.10533800000000001           
         H6        1.0000    0.16880   0.11320   0.36310   Biso      1.000     H          0.132251  
         H7        1.0000    0.79750   0.88700   0.36150   Biso      1.000     H          0.10533800000000001           
         H8        1.0000    0.38740   0.80120   0.51580   Biso      1.000     H          0.10167799999999999           
         H9        1.0000    0.20250   0.11300   0.63850   Biso      1.000     H          0.10533800000000001           
         H10       1.0000    0.33120   0.61320   0.13690   Biso      1.000     H          0.132251  
         H11       1.0000    0.11260   0.30120   0.98420   Biso      1.000     H          0.10167799999999999           
         H12       1.0000    0.29750   0.61300   0.86150   Biso      1.000     H          0.10533800000000001           
         N1        1.0000    0.18970   0.44860   0.90902   Biso      1.000     N          -0.285993           
         N2        1.0000    0.31030   0.94860   0.59098   Biso      1.000     N          -0.285993           
         N3        1.0000    0.68970   0.05140   0.40902   Biso      1.000     N          -0.285994           
         N4        1.0000    0.81030   0.55140   0.09098   Biso      1.000     N          -0.285993           
         O1        1.0000    0.40590   0.84610   0.07076   Biso      1.000     O          -0.7056399999999999           
         O2        1.0000    0.20570   0.06390   0.97947   Biso      1.000     O          -0.6230479999999999           
         O3        1.0000    0.16570   0.23214   0.14700   Biso      1.000     O          -0.70799  
         O4        1.0000    0.51660   0.19050   0.06867   Biso      1.000     O          -0.73712  
         O5        1.0000    0.55290   0.54650   0.61558   Biso      1.000     O          -0.601056           
         O6        1.0000    0.01660   0.30950   0.56867   Biso      1.000     O          -0.737121           
         O7        1.0000    0.30190   0.91990   0.26595   Biso      1.000     O          -0.707653           
         O8        1.0000    0.09410   0.34610   0.42924   Biso      1.000     O          -0.7056399999999999           
         O9        1.0000    0.33430   0.73214   0.35300   Biso      1.000     O          -0.707991           
         O10       1.0000    0.29430   0.56390   0.52053   Biso      1.000     O          -0.6230479999999999           
         O11       1.0000    0.05290   0.95350   0.11558   Biso      1.000     O          -0.601055           
         O12       1.0000    0.19810   0.41990   0.23405   Biso      1.000     O          -0.707653           
         O13       1.0000    0.80190   0.58010   0.76595   Biso      1.000     O          -0.707653           
         O14       1.0000    0.94710   0.04650   0.88442   Biso      1.000     O          -0.601056           
         O15       1.0000    0.83430   0.76786   0.85300   Biso      1.000     O          -0.70799  
         O16       1.0000    0.79430   0.93610   0.02053   Biso      1.000     O          -0.6230479999999999           
         O17       1.0000    0.44710   0.45350   0.38442   Biso      1.000     O          -0.601056           
         O18       1.0000    0.98340   0.69050   0.43133   Biso      1.000     O          -0.73712  
         O19       1.0000    0.69810   0.08010   0.73405   Biso      1.000     O          -0.707653           
         O20       1.0000    0.90590   0.65390   0.57076   Biso      1.000     O          -0.7056399999999999           
         O21       1.0000    0.66570   0.26786   0.64700   Biso      1.000     O          -0.707991           
         O22       1.0000    0.70570   0.43610   0.47947   Biso      1.000     O          -0.6230479999999999           
         O23       1.0000    0.48340   0.80950   0.93133   Biso      1.000     O          -0.73712  
         O24       1.0000    0.59410   0.15390   0.92924   Biso      1.000     O          -0.7056399999999999           
         Tm1       1.0000    0.34811   0.04429   0.13873   Biso      1.000     Tm          2.1883340000000002  
         Tm2       1.0000    0.15189   0.54429   0.36127   Biso      1.000     Tm          2.188335  
         Tm3       1.0000    0.65189   0.95571   0.86127   Biso      1.000     Tm          2.188335  
         Tm4       1.0000    0.84811   0.45571   0.63873   Biso      1.000     Tm          2.188335 