
##########################################################################
#               Crystallographic Information Format file
#               Produced by PyCifRW module
#
#  This is a CIF file.  CIF has been adopted by the International
#  Union of Crystallography as the standard for data archiving and
#  transmission.
#
#  For information on this file format, follow the CIF links at
#  http://www.iucr.org
##########################################################################

data_image0

_cell_length_a                          7.6435
_cell_length_b                          9.84
_cell_length_c                          14.785
_cell_angle_alpha                       90
_cell_angle_beta                        98.27
_cell_angle_gamma                       90
_symmetry_space_group_name_H-M          'P 1'
_symmetry_int_tables_number             1
loop_
  _symmetry_equiv_pos_as_xyz
         'x, y, z' 
loop_
  _atom_site_label
  _atom_site_occupancy
  _atom_site_fract_x
  _atom_site_fract_y
  _atom_site_fract_z
  _atom_site_thermal_displace_type
  _atom_site_B_iso_or_equiv
  _atom_site_type_symbol
  _atom_site_charge
         C1        1.0000    0.30800   0.63730   0.34307   Biso      1.000     C          0.682661  
         C2        1.0000    0.80800   0.86270   0.84307   Biso      1.000     C          0.682662  
         C3        1.0000    0.72600   0.06830   0.08344   Biso      1.000     C          0.057468  
         C4        1.0000    0.67380   0.13350   0.00096   Biso      1.000     C          -0.07660499999999999          
         C5        1.0000    0.70370   0.07070   0.92064   Biso      1.000     C          -0.073546           
         C6        1.0000    0.77890   0.94210   0.92611   Biso      1.000     C          -0.086375           
         C7        1.0000    0.83080   0.88660   0.01187   Biso      1.000     C          0.078016  
         C8        1.0000    0.45680   0.96840   0.53902   Biso      1.000     C          0.516304  
         C9        1.0000    0.91130   0.77150   0.50067   Biso      1.000     C          0.717438  
         C10       1.0000    0.69200   0.36270   0.65693   Biso      1.000     C          0.682659  
         C11       1.0000    0.77400   0.56830   0.41656   Biso      1.000     C          0.057468  
         C12       1.0000    0.82620   0.63350   0.49904   Biso      1.000     C          -0.07660700000000001          
         C13       1.0000    0.79630   0.57070   0.57936   Biso      1.000     C          -0.073543           
         C14       1.0000    0.72110   0.44210   0.57389   Biso      1.000     C          -0.086373           
         C15       1.0000    0.66920   0.38660   0.48813   Biso      1.000     C          0.078015  
         C16       1.0000    0.33080   0.61340   0.51187   Biso      1.000     C          0.07800900000000001           
         C17       1.0000    0.27890   0.55790   0.42611   Biso      1.000     C          -0.086373           
         C18       1.0000    0.20370   0.42930   0.42064   Biso      1.000     C          -0.073542           
         C19       1.0000    0.17380   0.36650   0.50096   Biso      1.000     C          -0.07660700000000001          
         C20       1.0000    0.22600   0.43170   0.58344   Biso      1.000     C          0.057465999999999996          
         C21       1.0000    0.08870   0.22850   0.49933   Biso      1.000     C          0.717433  
         C22       1.0000    0.54320   0.03160   0.46098   Biso      1.000     C          0.516295  
         C23       1.0000    0.16920   0.11340   0.98813   Biso      1.000     C          0.078012  
         C24       1.0000    0.22110   0.05790   0.07389   Biso      1.000     C          -0.086368           
         C25       1.0000    0.29630   0.92930   0.07936   Biso      1.000     C          -0.073541           
         C26       1.0000    0.32620   0.86650   0.99904   Biso      1.000     C          -0.07660499999999999          
         C27       1.0000    0.27400   0.93170   0.91656   Biso      1.000     C          0.057461  
         C28       1.0000    0.19200   0.13730   0.15693   Biso      1.000     C          0.682646  
         C29       1.0000    0.41130   0.72850   0.00067   Biso      1.000     C          0.717437  
         C30       1.0000    0.95680   0.53160   0.03902   Biso      1.000     C          0.516306  
         C31       1.0000    0.58870   0.27150   0.99933   Biso      1.000     C          0.717437  
         C32       1.0000    0.04320   0.46840   0.96098   Biso      1.000     C          0.516307  
         Gd1       1.0000    0.85200   0.04504   0.63922   Biso      1.000     Gd          2.092564  
         Gd2       1.0000    0.64800   0.54504   0.86078   Biso      1.000     Gd          2.0925580000000004  
         Gd3       1.0000    0.14800   0.95496   0.36079   Biso      1.000     Gd          2.092526  
         Gd4       1.0000    0.35200   0.45496   0.13922   Biso      1.000     Gd          2.092559  
         H1        1.0000    0.29680   0.88980   0.86310   Biso      1.000     H          0.10243499999999998           
         H2        1.0000    0.61520   0.30170   0.48470   Biso      1.000     H          0.099391  
         H3        1.0000    0.82600   0.61370   0.63550   Biso      1.000     H          0.132417  
         H4        1.0000    0.79680   0.61020   0.36310   Biso      1.000     H          0.10244   
         H5        1.0000    0.88480   0.80170   0.01530   Biso      1.000     H          0.099391  
         H6        1.0000    0.32600   0.88630   0.13550   Biso      1.000     H          0.132418  
         H7        1.0000    0.70320   0.11020   0.13690   Biso      1.000     H          0.10243800000000002           
         H8        1.0000    0.38480   0.69830   0.51530   Biso      1.000     H          0.099388  
         H9        1.0000    0.17400   0.38630   0.36450   Biso      1.000     H          0.132418  
         H10       1.0000    0.20320   0.38980   0.63690   Biso      1.000     H          0.10243800000000002           
         H11       1.0000    0.67400   0.11370   0.86450   Biso      1.000     H          0.132415  
         H12       1.0000    0.11520   0.19830   0.98470   Biso      1.000     H          0.099391  
         N1        1.0000    0.69210   0.44746   0.41037   Biso      1.000     N          -0.282119           
         N2        1.0000    0.80790   0.94746   0.08963   Biso      1.000     N          -0.282116           
         N3        1.0000    0.30790   0.55254   0.58963   Biso      1.000     N          -0.282122           
         N4        1.0000    0.19210   0.05254   0.91037   Biso      1.000     N          -0.282129           
         O1        1.0000    0.30480   0.57668   0.26915   Biso      1.000     O          -0.685723           
         O2        1.0000    0.09120   0.15810   0.42920   Biso      1.000     O          -0.68657  
         O3        1.0000    0.02130   0.19413   0.56757   Biso      1.000     O          -0.702387           
         O4        1.0000    0.44730   0.04802   0.38577   Biso      1.000     O          -0.588835           
         O5        1.0000    0.40880   0.65810   0.07080   Biso      1.000     O          -0.6865829999999999           
         O6        1.0000    0.16619   0.26402   0.14687   Biso      1.000     O          -0.685335           
         O7        1.0000    0.19520   0.07668   0.23085   Biso      1.000     O          -0.685699           
         O8        1.0000    0.33381   0.76402   0.35313   Biso      1.000     O          -0.6853319999999999           
         O9        1.0000    0.47870   0.69413   0.93243   Biso      1.000     O          -0.702389           
         O10       1.0000    0.70347   0.06313   0.47933   Biso      1.000     O          -0.611174           
         O11       1.0000    0.20347   0.43687   0.97933   Biso      1.000     O          -0.611171           
         O12       1.0000    0.90880   0.84190   0.57080   Biso      1.000     O          -0.686584           
         O13       1.0000    0.52130   0.30587   0.06757   Biso      1.000     O          -0.702385           
         O14       1.0000    0.59120   0.34190   0.92920   Biso      1.000     O          -0.6865859999999999           
         O15       1.0000    0.80480   0.92332   0.76915   Biso      1.000     O          -0.685733           
         O16       1.0000    0.83381   0.73598   0.85313   Biso      1.000     O          -0.6853239999999999           
         O17       1.0000    0.29653   0.93687   0.52067   Biso      1.000     O          -0.611159           
         O18       1.0000    0.55270   0.95198   0.61423   Biso      1.000     O          -0.5888369999999999           
         O19       1.0000    0.97870   0.80587   0.43243   Biso      1.000     O          -0.702388           
         O20       1.0000    0.69520   0.42332   0.73085   Biso      1.000     O          -0.685724           
         O21       1.0000    0.66619   0.23598   0.64687   Biso      1.000     O          -0.685326           
         O22       1.0000    0.05270   0.54802   0.11423   Biso      1.000     O          -0.588845           
         O23       1.0000    0.94730   0.45198   0.88577   Biso      1.000     O          -0.58885  
         O24       1.0000    0.79653   0.56313   0.02067   Biso      1.000     O          -0.611171 