
##########################################################################
#               Crystallographic Information Format file
#               Produced by PyCifRW module
#
#  This is a CIF file.  CIF has been adopted by the International
#  Union of Crystallography as the standard for data archiving and
#  transmission.
#
#  For information on this file format, follow the CIF links at
#  http://www.iucr.org
##########################################################################

data_image0

_cell_length_a                          8.5707
_cell_length_b                          9.8985
_cell_length_c                          14.2812
_cell_angle_alpha                       104.986
_cell_angle_beta                        102.291
_cell_angle_gamma                       91.286
_symmetry_space_group_name_H-M          'P 1'
_symmetry_int_tables_number             1
loop_
  _symmetry_equiv_pos_as_xyz
         'x, y, z' 
loop_
  _atom_site_label
  _atom_site_occupancy
  _atom_site_fract_x
  _atom_site_fract_y
  _atom_site_fract_z
  _atom_site_thermal_displace_type
  _atom_site_B_iso_or_equiv
  _atom_site_type_symbol
  _atom_site_charge
         C1        1.0000    0.01950   0.88880   0.76540   Biso      1.000     C          -0.210539           
         C2        1.0000    0.98050   0.11120   0.23460   Biso      1.000     C          -0.210534           
         C3        1.0000    0.52990   0.89460   0.79450   Biso      1.000     C          0.113581  
         C4        1.0000    0.63710   0.97620   0.87840   Biso      1.000     C          -0.204341           
         C5        1.0000    0.39180   0.19540   0.04190   Biso      1.000     C          -0.211011           
         C6        1.0000    0.92550   0.20240   0.56220   Biso      1.000     C          -0.326076           
         C7        1.0000    0.60820   0.80460   0.95810   Biso      1.000     C          -0.211005           
         C8        1.0000    0.82030   0.28950   0.50710   Biso      1.000     C          0.682658  
         C9        1.0000    0.50830   0.95700   0.45010   Biso      1.000     C          -0.323089           
         C10       1.0000    0.67450   0.92880   0.96040   Biso      1.000     C          0.180174  
         C11       1.0000    0.95860   0.70560   0.34540   Biso      1.000     C          -0.326856           
         C12       1.0000    0.53470   0.80420   0.44380   Biso      1.000     C          0.644768  
         C13       1.0000    0.04230   0.83960   0.84720   Biso      1.000     C          0.172614  
         C14       1.0000    0.90870   0.81380   0.67780   Biso      1.000     C          0.126408  
         C15       1.0000    0.14380   0.35190   0.24480   Biso      1.000     C          0.107363  
         C16       1.0000    0.36290   0.02380   0.12160   Biso      1.000     C          -0.204332           
         C17       1.0000    0.85620   0.64810   0.75520   Biso      1.000     C          0.107358  
         C18       1.0000    0.14100   0.40190   0.63000   Biso      1.000     C          0.68734   
         C19       1.0000    0.50140   0.72710   0.87280   Biso      1.000     C          0.103556  
         C20       1.0000    0.03960   0.28240   0.15750   Biso      1.000     C          -0.210279           
         C21       1.0000    0.96040   0.71760   0.84250   Biso      1.000     C          -0.210262           
         C22       1.0000    0.49860   0.27290   0.12720   Biso      1.000     C          0.103557  
         C23       1.0000    0.04140   0.29440   0.65460   Biso      1.000     C          -0.326854           
         C24       1.0000    0.32550   0.07120   0.03960   Biso      1.000     C          0.180159  
         C25       1.0000    0.09130   0.18620   0.32220   Biso      1.000     C          0.126407  
         C26       1.0000    0.85900   0.59810   0.37000   Biso      1.000     C          0.687341  
         C27       1.0000    0.49170   0.04300   0.54990   Biso      1.000     C          -0.323094           
         C28       1.0000    0.17970   0.71050   0.49290   Biso      1.000     C          0.682657  
         C29       1.0000    0.47010   0.10540   0.20550   Biso      1.000     C          0.11358   
         C30       1.0000    0.46530   0.19580   0.55620   Biso      1.000     C          0.644776  
         C31       1.0000    0.07450   0.79760   0.43780   Biso      1.000     C          -0.326076           
         C32       1.0000    0.95770   0.16040   0.15280   Biso      1.000     C          0.172609  
         H1        1.0000    0.40230   0.00120   0.56740   Biso      1.000     H          0.135011  
         H2        1.0000    0.88820   0.76470   0.31420   Biso      1.000     H          0.137047  
         H3        1.0000    0.98100   0.34180   0.70190   Biso      1.000     H          0.132165  
         H4        1.0000    0.01900   0.65820   0.29810   Biso      1.000     H          0.132165  
         H5        1.0000    0.80170   0.56430   0.75230   Biso      1.000     H          0.107029  
         H6        1.0000    0.10860   0.15160   0.37790   Biso      1.000     H          0.102709  
         H7        1.0000    0.31760   0.93760   0.12180   Biso      1.000     H          0.13484   
         H8        1.0000    0.19830   0.43570   0.24770   Biso      1.000     H          0.107029  
         H9        1.0000    0.11180   0.23530   0.68580   Biso      1.000     H          0.137047  
         H10       1.0000    0.01400   0.85380   0.48160   Biso      1.000     H          0.128274  
         H11       1.0000    0.63350   0.77010   0.01370   Biso      1.000     H          0.140872  
         H12       1.0000    0.14090   0.86100   0.41800   Biso      1.000     H          0.139953  
         H13       1.0000    0.58770   0.03890   0.59900   Biso      1.000     H          0.12064   
         H14       1.0000    0.50320   0.92830   0.73860   Biso      1.000     H          0.110481  
         H15       1.0000    0.85910   0.13900   0.58200   Biso      1.000     H          0.139953  
         H16       1.0000    0.98600   0.14620   0.51840   Biso      1.000     H          0.128273  
         H17       1.0000    0.41230   0.96110   0.40100   Biso      1.000     H          0.120638  
         H18       1.0000    0.68240   0.06240   0.87820   Biso      1.000     H          0.134837  
         H19       1.0000    0.36650   0.22990   0.98630   Biso      1.000     H          0.14087   
         H20       1.0000    0.89140   0.84840   0.62210   Biso      1.000     H          0.102709  
         H21       1.0000    0.07610   0.97080   0.76690   Biso      1.000     H          0.128466  
         H22       1.0000    0.02500   0.31810   0.10230   Biso      1.000     H          0.133671  
         H23       1.0000    0.59770   0.99880   0.43260   Biso      1.000     H          0.135009  
         H24       1.0000    0.92390   0.02920   0.23310   Biso      1.000     H          0.128471  
         H25       1.0000    0.45410   0.64160   0.87280   Biso      1.000     H          0.107262  
         H26       1.0000    0.49680   0.07170   0.26140   Biso      1.000     H          0.11048   
         H27       1.0000    0.97500   0.68190   0.89770   Biso      1.000     H          0.133674  
         H28       1.0000    0.54590   0.35840   0.12720   Biso      1.000     H          0.107262  
         N1        1.0000    0.53530   0.22900   0.20880   Biso      1.000     N          -0.197513           
         N2        1.0000    0.15230   0.90400   0.94580   Biso      1.000     N          -0.074516           
         N3        1.0000    0.78810   0.99690   0.05960   Biso      1.000     N          -0.076528           
         N4        1.0000    0.17090   0.30460   0.32640   Biso      1.000     N          -0.184508           
         N5        1.0000    0.84770   0.09600   0.05420   Biso      1.000     N          -0.074294           
         N6        1.0000    0.21190   0.00310   0.94040   Biso      1.000     N          -0.076306           
         N7        1.0000    0.46470   0.77100   0.79120   Biso      1.000     N          -0.197512           
         N8        1.0000    0.82910   0.69540   0.67360   Biso      1.000     N          -0.184509           
         O1        1.0000    0.79320   0.49190   0.29770   Biso      1.000     O          -0.599339           
         O2        1.0000    0.51170   0.47090   0.40060   Biso      1.000     O          -0.659309           
         O3        1.0000    0.78190   0.40130   0.55640   Biso      1.000     O          -0.545151           
         O4        1.0000    0.41510   0.22720   0.47570   Biso      1.000     O          -0.569456           
         O5        1.0000    0.58490   0.77280   0.52430   Biso      1.000     O          -0.569454           
         O6        1.0000    0.21810   0.59870   0.44360   Biso      1.000     O          -0.54515  
         O7        1.0000    0.48830   0.52910   0.59940   Biso      1.000     O          -0.659281           
         O8        1.0000    0.77670   0.24130   0.41320   Biso      1.000     O          -0.576808           
         O9        1.0000    0.22330   0.75870   0.58680   Biso      1.000     O          -0.576805           
         O10       1.0000    0.84550   0.61550   0.45600   Biso      1.000     O          -0.551553           
         O11       1.0000    0.49420   0.28090   0.64070   Biso      1.000     O          -0.463425           
         O12       1.0000    0.50580   0.71910   0.35930   Biso      1.000     O          -0.463398           
         O13       1.0000    0.20680   0.50810   0.70230   Biso      1.000     O          -0.599337           
         O14       1.0000    0.15450   0.38450   0.54400   Biso      1.000     O          -0.551553           
         Zn1       1.0000    0.66780   0.58387   0.53828   Biso      1.000     Zn          0.907929  
         Zn2       1.0000    0.33220   0.41613   0.46172   Biso      1.000     Zn          0.907928  
         Zn3       1.0000    0.66305   0.36064   0.33879   Biso      1.000     Zn          0.825231  
         Zn4       1.0000    0.33695   0.63936   0.66121   Biso      1.000     Zn          0.825222 