
##########################################################################
#               Crystallographic Information Format file
#               Produced by PyCifRW module
#
#  This is a CIF file.  CIF has been adopted by the International
#  Union of Crystallography as the standard for data archiving and
#  transmission.
#
#  For information on this file format, follow the CIF links at
#  http://www.iucr.org
##########################################################################

data_image0

_cell_length_a                          10.0089
_cell_length_b                          22.0259
_cell_length_c                          11.7311
_cell_angle_alpha                       90
_cell_angle_beta                        104.961
_cell_angle_gamma                       90
_symmetry_space_group_name_H-M          'P 1'
_symmetry_int_tables_number             1
loop_
  _symmetry_equiv_pos_as_xyz
         'x, y, z' 
loop_
  _atom_site_label
  _atom_site_occupancy
  _atom_site_fract_x
  _atom_site_fract_y
  _atom_site_fract_z
  _atom_site_thermal_displace_type
  _atom_site_B_iso_or_equiv
  _atom_site_type_symbol
  _atom_site_charge
         C1        1.0000    0.33030   0.75950   0.78970   Biso      1.000     C          0.175401  
         C2        1.0000    0.47600   0.44740   0.70940   Biso      1.000     C          0.066171  
         C3        1.0000    0.11550   0.41470   0.60390   Biso      1.000     C          0.065773  
         C4        1.0000    0.53350   0.52980   0.84020   Biso      1.000     C          -0.003757           
         C5        1.0000    0.13810   0.55590   0.78720   Biso      1.000     C          0.585802  
         C6        1.0000    0.63800   0.19130   0.07970   Biso      1.000     C          0.178078  
         C7        1.0000    0.52660   0.46840   0.81940   Biso      1.000     C          -0.163746           
         C8        1.0000    0.99400   0.60390   0.29350   Biso      1.000     C          0.166376  
         C9        1.0000    0.89440   0.97490   0.36800   Biso      1.000     C          -0.137804           
         C10       1.0000    0.14600   0.49090   0.75110   Biso      1.000     C          -0.00837  
         C11       1.0000    0.10560   0.47490   0.63200   Biso      1.000     C          -0.137804           
         C12       1.0000    0.85400   0.99090   0.24890   Biso      1.000     C          -0.008369           
         C13       1.0000    0.26340   0.01540   0.56830   Biso      1.000     C          0.579631  
         C14       1.0000    0.36200   0.69130   0.92030   Biso      1.000     C          0.178078  
         C15       1.0000    0.47340   0.96840   0.18060   Biso      1.000     C          -0.163778           
         C16       1.0000    0.20750   0.38600   0.80150   Biso      1.000     C          -0.024149           
         C17       1.0000    0.26780   0.33880   0.89540   Biso      1.000     C          0.628472  
         C18       1.0000    0.41860   0.48600   0.61450   Biso      1.000     C          -0.158903           
         C19       1.0000    0.46650   0.02980   0.15980   Biso      1.000     C          -0.003751           
         C20       1.0000    0.19690   0.44620   0.83360   Biso      1.000     C          -0.106073           
         C21       1.0000    0.88450   0.91470   0.39610   Biso      1.000     C          0.065773  
         C22       1.0000    0.19390   0.88560   0.28630   Biso      1.000     C          -0.167754           
         C23       1.0000    0.52400   0.94740   0.29060   Biso      1.000     C          0.066196  
         C24       1.0000    0.79250   0.88600   0.19850   Biso      1.000     C          -0.024149           
         C25       1.0000    0.22680   0.86570   0.40000   Biso      1.000     C          -0.000854           
         C26       1.0000    0.16330   0.36980   0.68550   Biso      1.000     C          -0.147324           
         C27       1.0000    0.53900   0.19840   0.77420   Biso      1.000     C          0.14952   
         C28       1.0000    0.75050   0.40810   0.50960   Biso      1.000     C          -0.129243           
         C29       1.0000    0.47870   0.57080   0.74740   Biso      1.000     C          -0.10851  
         C30       1.0000    0.78840   0.49030   0.64470   Biso      1.000     C          -0.152941           
         C31       1.0000    0.24630   0.96810   0.47050   Biso      1.000     C          -0.004424           
         C32       1.0000    0.86190   0.05590   0.21280   Biso      1.000     C          0.585802  
         C33       1.0000    0.39670   0.05400   0.03460   Biso      1.000     C          0.598079  
         C34       1.0000    0.24950   0.90810   0.49040   Biso      1.000     C          -0.129216           
         C35       1.0000    0.58140   0.98600   0.38550   Biso      1.000     C          -0.158905           
         C36       1.0000    0.85910   0.75310   0.79200   Biso      1.000     C          0.169761  
         C37       1.0000    0.66970   0.25950   0.21030   Biso      1.000     C          0.175401  
         C38       1.0000    0.88340   0.67940   0.90710   Biso      1.000     C          0.163943  
         C39       1.0000    0.35220   0.58900   0.53520   Biso      1.000     C          0.568665  
         C40       1.0000    0.14090   0.25310   0.20800   Biso      1.000     C          0.169761  
         C41       1.0000    0.64780   0.08900   0.46480   Biso      1.000     C          0.568665  
         C42       1.0000    0.22870   0.79870   0.42560   Biso      1.000     C          0.589347  
         C43       1.0000    0.53550   0.10700   0.72630   Biso      1.000     C          0.148725  
         C44       1.0000    0.58030   0.04780   0.36540   Biso      1.000     C          0.009103  
         C45       1.0000    0.97610   0.69150   0.22680   Biso      1.000     C          0.137286  
         C46       1.0000    0.11660   0.17940   0.09290   Biso      1.000     C          0.163942  
         C47       1.0000    0.00600   0.10390   0.70650   Biso      1.000     C          0.166372  
         C48       1.0000    0.73220   0.83880   0.10460   Biso      1.000     C          0.628472  
         C49       1.0000    0.52130   0.07080   0.25260   Biso      1.000     C          -0.108511           
         C50       1.0000    0.73660   0.51540   0.43170   Biso      1.000     C          0.579629  
         C51       1.0000    0.60330   0.55400   0.96540   Biso      1.000     C          0.598079  
         C52       1.0000    0.02390   0.19150   0.77320   Biso      1.000     C          0.137289  
         C53       1.0000    0.80310   0.94620   0.16640   Biso      1.000     C          -0.106073           
         C54       1.0000    0.21160   0.99030   0.35530   Biso      1.000     C          -0.152939           
         C55       1.0000    0.41970   0.54780   0.63460   Biso      1.000     C          0.009102  
         C56       1.0000    0.46100   0.69840   0.22580   Biso      1.000     C          0.14952   
         C57       1.0000    0.80610   0.38560   0.71370   Biso      1.000     C          -0.167754           
         C58       1.0000    0.18680   0.94720   0.26620   Biso      1.000     C          0.056614  
         C59       1.0000    0.46450   0.60700   0.27370   Biso      1.000     C          0.148725  
         C60       1.0000    0.77320   0.36570   0.60000   Biso      1.000     C          -0.00085  
         C61       1.0000    0.83670   0.86980   0.31450   Biso      1.000     C          -0.147324           
         C62       1.0000    0.77130   0.29870   0.57440   Biso      1.000     C          0.589347  
         C63       1.0000    0.75370   0.46810   0.52950   Biso      1.000     C          -0.0044   
         C64       1.0000    0.81320   0.44720   0.73380   Biso      1.000     C          0.056615  
         H1        1.0000    0.52980   0.89150   0.88270   Biso      1.000     H          0.430063  
         H2        1.0000    0.00560   0.23160   0.78890   Biso      1.000     H          0.102201  
         H3        1.0000    0.09090   0.73670   0.57210   Biso      1.000     H          0.469953  
         H4        1.0000    0.47020   0.39150   0.11730   Biso      1.000     H          0.430063  
         H5        1.0000    0.08430   0.14350   0.05360   Biso      1.000     H          0.123854  
         H6        1.0000    0.46100   0.92820   0.77730   Biso      1.000     H          0.501921  
         H7        1.0000    0.79470   0.53170   0.66080   Biso      1.000     H          0.13915   
         H8        1.0000    0.90910   0.23670   0.42790   Biso      1.000     H          0.469952  
         H9        1.0000    0.95400   0.18000   0.37500   Biso      1.000     H          0.405014  
         H10       1.0000    0.71270   0.28430   0.27320   Biso      1.000     H          0.113929  
         H11       1.0000    0.12890   0.28000   0.26580   Biso      1.000     H          0.103849  
         H12       1.0000    0.55360   0.07070   0.69260   Biso      1.000     H          0.099276  
         H13       1.0000    0.97140   0.06920   0.66380   Biso      1.000     H          0.10774   
         H14       1.0000    0.51830   0.11240   0.23880   Biso      1.000     H          0.130108  
         H15       1.0000    0.83450   0.82950   0.33770   Biso      1.000     H          0.145918  
         H16       1.0000    0.82330   0.35820   0.77620   Biso      1.000     H          0.136303  
         H17       1.0000    0.77510   0.95670   0.08700   Biso      1.000     H          0.129008  
         H18       1.0000    0.61940   0.97040   0.46050   Biso      1.000     H          0.130957  
         H19       1.0000    0.65330   0.15930   0.03280   Biso      1.000     H          0.115234  
         H20       1.0000    0.04600   0.68000   0.62500   Biso      1.000     H          0.405013  
         H21       1.0000    0.44290   0.94140   0.11840   Biso      1.000     H          0.139746  
         H22       1.0000    0.73230   0.39440   0.43210   Biso      1.000     H          0.117329  
         H23       1.0000    0.56120   0.23950   0.78350   Biso      1.000     H          0.100151  
         H24       1.0000    0.92680   0.00380   0.42630   Biso      1.000     H          0.143684  
         H25       1.0000    0.53900   0.42820   0.22270   Biso      1.000     H          0.501921  
         H26       1.0000    0.38060   0.47040   0.53950   Biso      1.000     H          0.130956  
         H27       1.0000    0.07320   0.50380   0.57370   Biso      1.000     H          0.143684  
         H28       1.0000    0.44640   0.57070   0.30740   Biso      1.000     H          0.099276  
         H29       1.0000    0.17670   0.85820   0.22380   Biso      1.000     H          0.136303  
         H30       1.0000    0.55710   0.44140   0.88160   Biso      1.000     H          0.139743  
         H31       1.0000    0.22490   0.45670   0.91300   Biso      1.000     H          0.129007  
         H32       1.0000    0.16550   0.32950   0.66230   Biso      1.000     H          0.145918  
         H33       1.0000    0.28730   0.78430   0.72680   Biso      1.000     H          0.113929  
         H34       1.0000    0.26770   0.89440   0.56790   Biso      1.000     H          0.117327  
         H35       1.0000    0.02860   0.56920   0.33620   Biso      1.000     H          0.10774   
         H36       1.0000    0.43880   0.73950   0.21650   Biso      1.000     H          0.100151  
         H37       1.0000    0.99440   0.73160   0.21110   Biso      1.000     H          0.102201  
         H38       1.0000    0.91570   0.64350   0.94640   Biso      1.000     H          0.123854  
         H39       1.0000    0.20530   0.03170   0.33920   Biso      1.000     H          0.13915   
         H40       1.0000    0.87110   0.78000   0.73420   Biso      1.000     H          0.103849  
         H41       1.0000    0.34670   0.65930   0.96720   Biso      1.000     H          0.115234  
         H42       1.0000    0.48170   0.61240   0.76120   Biso      1.000     H          0.130108  
         N1        1.0000    0.23370   0.26190   0.14590   Biso      1.000     N          -0.229388           
         N2        1.0000    0.14180   0.16360   0.81950   Biso      1.000     N          -0.193459           
         N3        1.0000    0.54170   0.26680   0.14500   Biso      1.000     N          -0.21379  
         N4        1.0000    0.44500   0.11250   0.78750   Biso      1.000     N          -0.195154           
         N5        1.0000    0.78460   0.71360   0.92920   Biso      1.000     N          -0.158399           
         N6        1.0000    0.47820   0.72210   0.93990   Biso      1.000     N          -0.184116           
         N7        1.0000    0.72940   0.21120   0.17340   Biso      1.000     N          -0.317886           
         N8        1.0000    0.76630   0.76190   0.85410   Biso      1.000     N          -0.229378           
         N9        1.0000    0.52180   0.22210   0.06010   Biso      1.000     N          -0.184114           
         N10       1.0000    0.87130   0.60720   0.22260   Biso      1.000     N          -0.175356           
         N11       1.0000    0.85820   0.66360   0.18050   Biso      1.000     N          -0.193427           
         N12       1.0000    0.60050   0.15970   0.71690   Biso      1.000     N          -0.306189           
         N13       1.0000    0.45830   0.76680   0.85500   Biso      1.000     N          -0.213787           
         N14       1.0000    0.27060   0.71120   0.82660   Biso      1.000     N          -0.317888           
         N15       1.0000    0.39950   0.65970   0.28310   Biso      1.000     N          -0.306189           
         N16       1.0000    0.55500   0.61250   0.21250   Biso      1.000     N          -0.195154           
         N17       1.0000    0.21540   0.21360   0.07080   Biso      1.000     N          -0.158387           
         N18       1.0000    0.93480   0.15530   0.70120   Biso      1.000     N          -0.308891           
         N19       1.0000    0.06520   0.65530   0.29880   Biso      1.000     N          -0.308891           
         N20       1.0000    0.85580   0.46980   0.85730   Biso      1.000     N          0.539929  
         N21       1.0000    0.44190   0.17190   0.81690   Biso      1.000     N          -0.199447           
         N22       1.0000    0.52780   0.88180   0.31620   Biso      1.000     N          0.525206  
         N23       1.0000    0.14420   0.96980   0.14270   Biso      1.000     N          0.539929  
         N24       1.0000    0.55810   0.67190   0.18310   Biso      1.000     N          -0.199447           
         N25       1.0000    0.93120   0.70370   0.81950   Biso      1.000     N          -0.291795           
         N26       1.0000    0.12870   0.10720   0.77740   Biso      1.000     N          -0.175325           
         N27       1.0000    0.92520   0.89920   0.52540   Biso      1.000     N          0.539414  
         N28       1.0000    0.07480   0.39920   0.47460   Biso      1.000     N          0.539414  
         N29       1.0000    0.47220   0.38180   0.68380   Biso      1.000     N          0.525208  
         N30       1.0000    0.06880   0.20370   0.18050   Biso      1.000     N          -0.291794           
         O1        1.0000    0.53900   0.40540   0.17130   Biso      1.000     O          -0.817634           
         O2        1.0000    0.97590   0.93720   0.59340   Biso      1.000     O          -0.310137           
         O3        1.0000    0.62750   0.60730   0.97710   Biso      1.000     O          -0.55736  
         O4        1.0000    0.87550   0.43170   0.93440   Biso      1.000     O          -0.355299           
         O5        1.0000    0.35760   0.64640   0.54370   Biso      1.000     O          -0.557101           
         O6        1.0000    0.25190   0.76310   0.35050   Biso      1.000     O          -0.528519           
         O7        1.0000    0.31940   0.35940   0.99610   Biso      1.000     O          -0.569572           
         O8        1.0000    0.70310   0.49320   0.32730   Biso      1.000     O          -0.578639           
         O9        1.0000    0.17620   0.57150   0.89080   Biso      1.000     O          -0.554523           
         O10       1.0000    0.78300   0.28200   0.47420   Biso      1.000     O          -0.6116   
         O11       1.0000    0.90530   0.84730   0.55190   Biso      1.000     O          -0.364365           
         O12       1.0000    0.02910   0.71560   0.59380   Biso      1.000     O          -0.767265           
         O13       1.0000    0.27020   0.28490   0.86370   Biso      1.000     O          -0.512451           
         O14       1.0000    0.76240   0.56740   0.45620   Biso      1.000     O          -0.527341           
         O15       1.0000    0.86680   0.52270   0.87660   Biso      1.000     O          -0.333437           
         O16       1.0000    0.56930   0.86370   0.41570   Biso      1.000     O          -0.327445           
         O17       1.0000    0.46100   0.90540   0.82870   Biso      1.000     O          -0.817634           
         O18       1.0000    0.51990   0.34850   0.76960   Biso      1.000     O          -0.343117           
         O19       1.0000    0.02410   0.43720   0.40660   Biso      1.000     O          -0.310137           
         O20       1.0000    0.12450   0.93170   0.06560   Biso      1.000     O          -0.355299           
         O21       1.0000    0.13320   0.02270   0.12340   Biso      1.000     O          -0.333437           
         O22       1.0000    0.37250   0.10730   0.02290   Biso      1.000     O          -0.557361           
         O23       1.0000    0.68060   0.85940   0.00390   Biso      1.000     O          -0.569572           
         O24       1.0000    0.62350   0.51440   0.04520   Biso      1.000     O          -0.529066           
         O25       1.0000    0.21700   0.78200   0.52580   Biso      1.000     O          -0.611601           
         O26       1.0000    0.97090   0.21560   0.40620   Biso      1.000     O          -0.767265           
         O27       1.0000    0.72980   0.78490   0.13630   Biso      1.000     O          -0.512451           
         O28       1.0000    0.23760   0.06740   0.54380   Biso      1.000     O          -0.527341           
         O29       1.0000    0.82380   0.07150   0.10920   Biso      1.000     O          -0.554523           
         O30       1.0000    0.64240   0.14640   0.45630   Biso      1.000     O          -0.5571   
         O31       1.0000    0.37650   0.01440   0.95480   Biso      1.000     O          -0.529065           
         O32       1.0000    0.48010   0.84850   0.23040   Biso      1.000     O          -0.343116           
         O33       1.0000    0.43070   0.36370   0.58430   Biso      1.000     O          -0.327445           
         O34       1.0000    0.91420   0.09150   0.29740   Biso      1.000     O          -0.545259           
         O35       1.0000    0.29690   0.99320   0.67270   Biso      1.000     O          -0.578639           
         O36       1.0000    0.09470   0.34730   0.44810   Biso      1.000     O          -0.364365           
         O37       1.0000    0.71600   0.06460   0.55870   Biso      1.000     O          -0.573142           
         O38       1.0000    0.74810   0.26310   0.64950   Biso      1.000     O          -0.528519           
         O39       1.0000    0.28400   0.56460   0.44130   Biso      1.000     O          -0.573142           
         O40       1.0000    0.08580   0.59150   0.70260   Biso      1.000     O          -0.545259           
         Zn1       1.0000    0.26347   0.67444   0.37911   Biso      1.000     Zn          0.784203  
         Zn2       1.0000    0.08336   0.67577   0.74963   Biso      1.000     Zn          0.751567  
         Zn3       1.0000    0.70648   0.55194   0.19946   Biso      1.000     Zn          0.771602  
         Zn4       1.0000    0.60952   0.82486   0.84626   Biso      1.000     Zn          0.827867  
         Zn5       1.0000    0.91664   0.17577   0.25037   Biso      1.000     Zn          0.751566  
         Zn6       1.0000    0.73653   0.17444   0.62089   Biso      1.000     Zn          0.784203  
         Zn7       1.0000    0.29352   0.05194   0.80054   Biso      1.000     Zn          0.771598  
         Zn8       1.0000    0.39048   0.32486   0.15374   Biso      1.000     Zn          0.827868  
         Zn9       1.0000    0.32738   0.20046   0.94035   Biso      1.000     Zn          0.689007  
         Zn10      1.0000    0.67262   0.70046   0.05965   Biso      1.000     Zn          0.689005 