
##########################################################################
#               Crystallographic Information Format file
#               Produced by PyCifRW module
#
#  This is a CIF file.  CIF has been adopted by the International
#  Union of Crystallography as the standard for data archiving and
#  transmission.
#
#  For information on this file format, follow the CIF links at
#  http://www.iucr.org
##########################################################################

data_image0

_cell_length_a                          16.634
_cell_length_b                          16.634
_cell_length_c                          18.194
_cell_angle_alpha                       90
_cell_angle_beta                        90
_cell_angle_gamma                       120
_symmetry_space_group_name_H-M          'P 1'
_symmetry_int_tables_number             1
loop_
  _symmetry_equiv_pos_as_xyz
         'x, y, z' 
loop_
  _atom_site_label
  _atom_site_occupancy
  _atom_site_fract_x
  _atom_site_fract_y
  _atom_site_fract_z
  _atom_site_thermal_displace_type
  _atom_site_B_iso_or_equiv
  _atom_site_type_symbol
  _atom_site_charge
         C1        1.0000    0.75970   0.36400   0.76380   Biso      1.000     C          -0.014839           
         C2        1.0000    0.93150   0.33730   0.54300   Biso      1.000     C          -0.187152           
         C3        1.0000    0.99800   0.91650   0.76250   Biso      1.000     C          -0.110134           
         C4        1.0000    0.57450   0.30560   0.76210   Biso      1.000     C          -0.129487           
         C5        1.0000    0.23810   0.60120   0.15830   Biso      1.000     C          -0.019142           
         C6        1.0000    0.06680   0.31420   0.61980   Biso      1.000     C          0.101922  
         C7        1.0000    0.60570   0.46630   0.15310   Biso      1.000     C          0.536153  
         C8        1.0000    0.08420   0.00000   0.76200   Biso      1.000     C          -0.01698  
         C9        1.0000    0.68580   0.75260   0.61980   Biso      1.000     C          0.10164   
         C10       1.0000    0.17350   0.99990   0.15580   Biso      1.000     C          0.514095  
         C11       1.0000    0.24740   0.93320   0.61980   Biso      1.000     C          0.101797  
         C12       1.0000    0.40200   0.00030   0.99900   Biso      1.000     C          -0.10192  
         C13       1.0000    0.67520   0.67470   0.50850   Biso      1.000     C          0.110838  
         C14       1.0000    0.07690   0.38280   0.30610   Biso      1.000     C          0.113717  
         C15       1.0000    0.57490   0.30530   0.15540   Biso      1.000     C          -0.116172           
         C16       1.0000    0.99960   0.08480   0.15690   Biso      1.000     C          -0.019358           
         C17       1.0000    0.67420   0.75990   0.91920   Biso      1.000     C          -0.106289           
         C18       1.0000    0.53490   0.14040   0.76480   Biso      1.000     C          0.522967  
         C19       1.0000    0.53370   0.13940   0.15310   Biso      1.000     C          0.536076  
         C20       1.0000    0.36300   0.76130   0.75960   Biso      1.000     C          -0.017701           
         C21       1.0000    0.91840   0.00250   0.15650   Biso      1.000     C          -0.107792           
         C22       1.0000    0.69470   0.26960   0.15540   Biso      1.000     C          -0.116325           
         C23       1.0000    0.00010   0.17360   0.15580   Biso      1.000     C          0.514062  
         C24       1.0000    0.39770   0.99920   0.91970   Biso      1.000     C          -0.110479           
         C25       1.0000    0.24100   0.91580   0.00030   Biso      1.000     C          -0.110581           
         C26       1.0000    0.24010   0.91430   0.91920   Biso      1.000     C          -0.106572           
         C27       1.0000    0.60550   0.46510   0.76480   Biso      1.000     C          0.522167  
         C28       1.0000    0.99750   0.91590   0.15650   Biso      1.000     C          -0.107604           
         C29       1.0000    0.39880   0.63690   0.15830   Biso      1.000     C          -0.019361           
         C30       1.0000    0.60160   0.23850   0.15470   Biso      1.000     C          -0.014743           
         C31       1.0000    0.63690   0.39840   0.15470   Biso      1.000     C          -0.014663           
         C32       1.0000    0.30530   0.57310   0.75790   Biso      1.000     C          -0.127342           
         C33       1.0000    0.36310   0.76190   0.15830   Biso      1.000     C          -0.019123           
         C34       1.0000    0.91580   0.91580   0.76200   Biso      1.000     C          -0.016344           
         C35       1.0000    0.91840   0.24020   0.99920   Biso      1.000     C          -0.108053           
         C36       1.0000    0.91940   0.26970   0.38050   Biso      1.000     C          -0.193263           
         C37       1.0000    0.13890   0.53130   0.15190   Biso      1.000     C          0.533778  
         C38       1.0000    0.08350   0.08150   0.76250   Biso      1.000     C          -0.110445           
         C39       1.0000    0.39830   0.63700   0.75960   Biso      1.000     C          -0.020661           
         C40       1.0000    0.35030   0.08060   0.38050   Biso      1.000     C          -0.193211           
         C41       1.0000    0.17280   0.99960   0.76390   Biso      1.000     C          0.501749  
         C42       1.0000    0.61580   0.69280   0.38110   Biso      1.000     C          -0.185023           
         C43       1.0000    0.82640   0.82650   0.15580   Biso      1.000     C          0.514117  
         C44       1.0000    0.06710   0.31430   0.54260   Biso      1.000     C          -0.189482           
         C45       1.0000    0.67120   0.67140   0.42310   Biso      1.000     C          0.094154  
         C46       1.0000    0.99950   0.32480   0.50850   Biso      1.000     C          0.110874  
         C47       1.0000    0.40580   0.06850   0.54300   Biso      1.000     C          -0.187086           
         C48       1.0000    0.93640   0.33670   0.61840   Biso      1.000     C          0.114823  
         C49       1.0000    0.26800   0.69380   0.15850   Biso      1.000     C          -0.12019  
         C50       1.0000    0.40030   0.06360   0.61840   Biso      1.000     C          0.114745  
         C51       1.0000    0.73040   0.42510   0.15540   Biso      1.000     C          -0.11638  
         C52       1.0000    0.07700   0.38420   0.38110   Biso      1.000     C          -0.185149           
         C53       1.0000    0.91830   0.23970   0.91850   Biso      1.000     C          -0.105021           
         C54       1.0000    0.00000   0.08420   0.76200   Biso      1.000     C          -0.016256           
         C55       1.0000    0.08520   0.00040   0.15690   Biso      1.000     C          -0.019267           
         C56       1.0000    0.85960   0.39450   0.76480   Biso      1.000     C          0.522617  
         C57       1.0000    0.32140   0.08170   0.91850   Biso      1.000     C          -0.104946           
         C58       1.0000    0.66270   0.59420   0.54300   Biso      1.000     C          -0.186919           
         C59       1.0000    0.69440   0.26890   0.76210   Biso      1.000     C          -0.130132           
         C60       1.0000    0.63600   0.39570   0.76380   Biso      1.000     C          -0.015596           
         C61       1.0000    0.76150   0.36310   0.15470   Biso      1.000     C          -0.01468  
         C62       1.0000    0.42690   0.73220   0.75790   Biso      1.000     C          -0.128394           
         C63       1.0000    0.60430   0.24030   0.76380   Biso      1.000     C          -0.014788           
         C64       1.0000    0.76030   0.67860   0.91850   Biso      1.000     C          -0.104993           
         C65       1.0000    0.42580   0.73200   0.15850   Biso      1.000     C          -0.120142           
         C66       1.0000    0.39430   0.86250   0.76230   Biso      1.000     C          0.551732  
         C67       1.0000    0.32860   0.99980   0.42310   Biso      1.000     C          0.094134  
         C68       1.0000    0.24720   0.93290   0.54260   Biso      1.000     C          -0.189395           
         C69       1.0000    0.68570   0.75280   0.54260   Biso      1.000     C          -0.189238           
         C70       1.0000    0.73030   0.64970   0.38050   Biso      1.000     C          -0.193106           
         C71       1.0000    0.00040   0.17320   0.76390   Biso      1.000     C          0.501665  
         C72       1.0000    0.86060   0.39430   0.15310   Biso      1.000     C          0.536006  
         C73       1.0000    0.34880   0.08060   0.30440   Biso      1.000     C          0.093826  
         C74       1.0000    0.32530   0.00050   0.50850   Biso      1.000     C          0.110971  
         C75       1.0000    0.75980   0.67820   0.99920   Biso      1.000     C          -0.1078   
         C76       1.0000    0.08420   0.32520   0.00030   Biso      1.000     C          -0.110409           
         C77       1.0000    0.30590   0.92310   0.30610   Biso      1.000     C          0.113705  
         C78       1.0000    0.60150   0.60230   0.91970   Biso      1.000     C          -0.110505           
         C79       1.0000    0.66330   0.59970   0.61840   Biso      1.000     C          0.114557  
         C80       1.0000    0.73180   0.65120   0.30440   Biso      1.000     C          0.093621  
         C81       1.0000    0.13750   0.53180   0.76230   Biso      1.000     C          0.550861  
         C82       1.0000    0.67480   0.75900   0.00030   Biso      1.000     C          -0.110153           
         C83       1.0000    0.91520   0.91480   0.15690   Biso      1.000     C          -0.019413           
         C84       1.0000    0.30720   0.92300   0.38110   Biso      1.000     C          -0.185137           
         C85       1.0000    0.91940   0.26820   0.30440   Biso      1.000     C          0.093787  
         C86       1.0000    0.91850   0.00200   0.76250   Biso      1.000     C          -0.110391           
         C87       1.0000    0.61720   0.69410   0.30610   Biso      1.000     C          0.113536  
         C88       1.0000    0.99970   0.40170   0.99900   Biso      1.000     C          -0.101849           
         C89       1.0000    0.00080   0.39850   0.91970   Biso      1.000     C          -0.110652           
         C90       1.0000    0.82680   0.82720   0.76390   Biso      1.000     C          0.501736  
         C91       1.0000    0.08570   0.32580   0.91920   Biso      1.000     C          -0.106506           
         C92       1.0000    0.59830   0.59800   0.99900   Biso      1.000     C          -0.101591           
         C93       1.0000    0.46870   0.60760   0.15190   Biso      1.000     C          0.533819  
         C94       1.0000    0.39240   0.86110   0.15190   Biso      1.000     C          0.533734  
         C95       1.0000    0.73110   0.42550   0.76210   Biso      1.000     C          -0.130172           
         C96       1.0000    0.00020   0.32880   0.42310   Biso      1.000     C          0.094234  
         C97       1.0000    0.23870   0.60170   0.75960   Biso      1.000     C          -0.021424           
         C98       1.0000    0.32180   0.08160   0.99920   Biso      1.000     C          -0.10795  
         C99       1.0000    0.46820   0.60570   0.76230   Biso      1.000     C          0.552063  
         C100      1.0000    0.08410   0.08160   0.15650   Biso      1.000     C          -0.107743           
         C101      1.0000    0.30620   0.57420   0.15850   Biso      1.000     C          -0.120047           
         C102      1.0000    0.26780   0.69470   0.75790   Biso      1.000     C          -0.127476           
         H1        1.0000    0.24240   0.85910   0.90190   Biso      1.000     H          0.119446  
         H2        1.0000    0.69370   0.80520   0.64630   Biso      1.000     H          0.122861  
         H3        1.0000    0.13260   0.42280   0.28040   Biso      1.000     H          0.110181  
         H4        1.0000    0.59970   0.54540   0.90120   Biso      1.000     H          0.106421  
         H5        1.0000    0.69260   0.80460   0.51540   Biso      1.000     H          0.14313   
         H6        1.0000    0.94570   0.40030   0.90120   Biso      1.000     H          0.106419  
         H7        1.0000    0.37730   0.13900   0.01650   Biso      1.000     H          0.117638  
         H8        1.0000    0.22320   0.71440   0.75550   Biso      1.000     H          0.128853  
         H9        1.0000    0.37770   0.13800   0.90070   Biso      1.000     H          0.11921   
         H10       1.0000    0.09120   0.27240   0.90150   Biso      1.000     H          0.108323  
         H11       1.0000    0.86180   0.00270   0.76320   Biso      1.000     H          0.129663  
         H12       1.0000    0.77040   0.63360   0.40560   Biso      1.000     H          0.124307  
         H13       1.0000    0.77480   0.48950   0.15660   Biso      1.000     H          0.125375  
         H14       1.0000    0.86200   0.23970   0.90070   Biso      1.000     H          0.119359  
         H15       1.0000    0.49020   0.77690   0.15880   Biso      1.000     H          0.12689   
         H16       1.0000    0.99680   0.85840   0.15580   Biso      1.000     H          0.129573  
         H17       1.0000    0.72940   0.81690   0.01780   Biso      1.000     H          0.108206  
         H18       1.0000    0.61670   0.75760   0.90190   Biso      1.000     H          0.119675  
         H19       1.0000    0.18120   0.90880   0.90150   Biso      1.000     H          0.108152  
         H20       1.0000    0.57720   0.70980   0.28040   Biso      1.000     H          0.11027   
         H21       1.0000    0.45230   0.10790   0.64570   Biso      1.000     H          0.101687  
         H22       1.0000    0.45960   0.05650   0.01510   Biso      1.000     H          0.110221  
         H23       1.0000    0.19480   0.88850   0.64630   Biso      1.000     H          0.122774  
         H24       1.0000    0.36640   0.13680   0.40560   Biso      1.000     H          0.12428   
         H25       1.0000    0.14090   0.13820   0.76320   Biso      1.000     H          0.129657  
         H26       1.0000    0.76170   0.62270   0.01650   Biso      1.000     H          0.117735  
         H27       1.0000    0.49120   0.77680   0.75550   Biso      1.000     H          0.12876   
         H28       1.0000    0.65560   0.54770   0.64570   Biso      1.000     H          0.101776  
         H29       1.0000    0.54450   0.60090   0.90210   Biso      1.000     H          0.107578  
         H30       1.0000    0.88640   0.34530   0.51710   Biso      1.000     H          0.148653  
         H31       1.0000    0.13310   0.42580   0.40560   Biso      1.000     H          0.12296   
         H32       1.0000    0.26650   0.08450   0.90100   Biso      1.000     H          0.108313  
         H33       1.0000    0.86440   0.22780   0.27810   Biso      1.000     H          0.122411  
         H34       1.0000    0.19540   0.88800   0.51540   Biso      1.000     H          0.143084  
         H35       1.0000    0.39910   0.94360   0.90210   Biso      1.000     H          0.107174  
         H36       1.0000    0.11150   0.30630   0.64630   Biso      1.000     H          0.122825  
         H37       1.0000    0.54020   0.59470   0.01600   Biso      1.000     H          0.108818  
         H38       1.0000    0.81700   0.73370   0.01680   Biso      1.000     H          0.107177  
         H39       1.0000    0.11200   0.30740   0.51540   Biso      1.000     H          0.143079  
         H40       1.0000    0.26630   0.08330   0.01680   Biso      1.000     H          0.10709   
         H41       1.0000    0.24110   0.85970   0.01820   Biso      1.000     H          0.117681  
         H42       1.0000    0.51050   0.28530   0.15660   Biso      1.000     H          0.125387  
         H43       1.0000    0.45890   0.11360   0.51710   Biso      1.000     H          0.148669  
         H44       1.0000    0.59690   0.54040   0.01510   Biso      1.000     H          0.110355  
         H45       1.0000    0.86100   0.23830   0.01650   Biso      1.000     H          0.117709  
         H46       1.0000    0.91670   0.18300   0.01680   Biso      1.000     H          0.10714   
         H47       1.0000    0.99730   0.85910   0.76320   Biso      1.000     H          0.12968   
         H48       1.0000    0.72760   0.81880   0.90150   Biso      1.000     H          0.108318  
         H49       1.0000    0.89210   0.34440   0.64570   Biso      1.000     H          0.101757  
         H50       1.0000    0.28560   0.50880   0.75550   Biso      1.000     H          0.128904  
         H51       1.0000    0.45460   0.05430   0.90120   Biso      1.000     H          0.106159  
         H52       1.0000    0.86320   0.22960   0.40560   Biso      1.000     H          0.12424   
         H53       1.0000    0.81800   0.73350   0.90100   Biso      1.000     H          0.108659  
         H54       1.0000    0.08750   0.27060   0.01780   Biso      1.000     H          0.10819   
         H55       1.0000    0.05640   0.45550   0.90210   Biso      1.000     H          0.107408  
         H56       1.0000    0.91550   0.18200   0.90100   Biso      1.000     H          0.108587  
         H57       1.0000    0.18310   0.91250   0.01780   Biso      1.000     H          0.108114  
         H58       1.0000    0.14030   0.38140   0.01820   Biso      1.000     H          0.117766  
         H59       1.0000    0.14160   0.13840   0.15580   Biso      1.000     H          0.129562  
         H60       1.0000    0.51010   0.28530   0.75960   Biso      1.000     H          0.142885  
         H61       1.0000    0.86160   0.00320   0.15580   Biso      1.000     H          0.129538  
         H62       1.0000    0.28670   0.50980   0.15880   Biso      1.000     H          0.126952  
         H63       1.0000    0.71470   0.22520   0.15660   Biso      1.000     H          0.125382  
         H64       1.0000    0.71470   0.22480   0.75960   Biso      1.000     H          0.142957  
         H65       1.0000    0.76030   0.62230   0.90070   Biso      1.000     H          0.119376  
         H66       1.0000    0.29270   0.86690   0.40560   Biso      1.000     H          0.122988  
         H67       1.0000    0.77220   0.63660   0.27810   Biso      1.000     H          0.122507  
         H68       1.0000    0.05450   0.45980   0.01600   Biso      1.000     H          0.108805  
         H69       1.0000    0.94350   0.40310   0.01510   Biso      1.000     H          0.110313  
         H70       1.0000    0.57420   0.70730   0.40560   Biso      1.000     H          0.123003  
         H71       1.0000    0.22310   0.71330   0.15880   Biso      1.000     H          0.127001  
         H72       1.0000    0.65470   0.54110   0.51710   Biso      1.000     H          0.148735  
         H73       1.0000    0.61860   0.75890   0.01820   Biso      1.000     H          0.117797  
         H74       1.0000    0.40530   0.94550   0.01600   Biso      1.000     H          0.108731  
         H75       1.0000    0.36340   0.13560   0.27810   Biso      1.000     H          0.122463  
         H76       1.0000    0.14090   0.38330   0.90190   Biso      1.000     H          0.119624  
         H77       1.0000    0.29020   0.86740   0.28040   Biso      1.000     H          0.110203  
         H78       1.0000    0.77520   0.48990   0.75960   Biso      1.000     H          0.143069  
         N1        1.0000    0.67430   0.67530   0.65640   Biso      1.000     N          -0.187653           
         N2        1.0000    0.32620   0.00020   0.26760   Biso      1.000     N          -0.199476           
         N3        1.0000    0.67760   0.67790   0.03370   Biso      1.000     N          -0.076367           
         N4        1.0000    0.67400   0.67380   0.26760   Biso      1.000     N          -0.198828           
         N5        1.0000    0.32210   0.99970   0.03370   Biso      1.000     N          -0.077144           
         N6        1.0000    0.00100   0.32570   0.65640   Biso      1.000     N          -0.188742           
         N7        1.0000    0.32470   0.99900   0.65640   Biso      1.000     N          -0.190268           
         N8        1.0000    0.99980   0.32600   0.26760   Biso      1.000     N          -0.199582           
         N9        1.0000    0.67970   0.68070   0.88720   Biso      1.000     N          -0.061812           
         N10       1.0000    0.00030   0.32240   0.03370   Biso      1.000     N          -0.077075           
         N11       1.0000    0.31930   0.99900   0.88720   Biso      1.000     N          -0.064544           
         N12       1.0000    0.00100   0.32030   0.88720   Biso      1.000     N          -0.062995           
         Ni1       1.0000    0.00008   0.32066   0.14951   Biso      1.000     Ni          0.777917  
         Ni2       1.0000    0.00005   0.32095   0.76830   Biso      1.000     Ni          0.77592   
         Ni3       1.0000    0.67934   0.67942   0.14951   Biso      1.000     Ni          0.779051  
         Ni4       1.0000    0.32090   0.99995   0.76830   Biso      1.000     Ni          0.77747   
         Ni5       1.0000    0.67905   0.67910   0.76830   Biso      1.000     Ni          0.777547  
         Ni6       1.0000    0.32058   0.99992   0.14951   Biso      1.000     Ni          0.778164  
         O1        1.0000    0.88550   0.33430   0.14740   Biso      1.000     O          -0.541392           
         O2        1.0000    0.11500   0.44910   0.76890   Biso      1.000     O          -0.531412           
         O3        1.0000    0.07930   0.25070   0.76260   Biso      1.000     O          -0.509127           
         O4        1.0000    0.43730   0.51970   0.75680   Biso      1.000     O          -0.392242           
         O5        1.0000    0.56200   0.08080   0.75990   Biso      1.000     O          -0.397989           
         O6        1.0000    0.17290   0.92180   0.15470   Biso      1.000     O          -0.505143           
         O7        1.0000    0.44880   0.11450   0.14740   Biso      1.000     O          -0.542552           
         O8        1.0000    0.44890   0.11500   0.76990   Biso      1.000     O          -0.552177           
         O9        1.0000    0.51830   0.43970   0.15800   Biso      1.000     O          -0.387559           
         O10       1.0000    0.92250   0.17390   0.15540   Biso      1.000     O          -0.507307           
         O11       1.0000    0.17140   0.92070   0.76260   Biso      1.000     O          -0.508549           
         O12       1.0000    0.51880   0.43800   0.75990   Biso      1.000     O          -0.399601           
         O13       1.0000    0.07820   0.25110   0.15470   Biso      1.000     O          -0.503894           
         O14       1.0000    0.25010   0.07810   0.76490   Biso      1.000     O          -0.492065           
         O15       1.0000    0.82800   0.74990   0.76490   Biso      1.000     O          -0.497933           
         O16       1.0000    0.56030   0.07860   0.15800   Biso      1.000     O          -0.38653  
         O17       1.0000    0.55180   0.66630   0.14900   Biso      1.000     O          -0.521941           
         O18       1.0000    0.82610   0.74860   0.15540   Biso      1.000     O          -0.507701           
         O19       1.0000    0.92140   0.48170   0.15800   Biso      1.000     O          -0.386911           
         O20       1.0000    0.08170   0.56260   0.16090   Biso      1.000     O          -0.382381           
         O21       1.0000    0.74890   0.82710   0.15470   Biso      1.000     O          -0.503677           
         O22       1.0000    0.92190   0.17200   0.76490   Biso      1.000     O          -0.497009           
         O23       1.0000    0.55090   0.66590   0.76890   Biso      1.000     O          -0.535936           
         O24       1.0000    0.74930   0.82860   0.76260   Biso      1.000     O          -0.507976           
         O25       1.0000    0.66610   0.55110   0.76990   Biso      1.000     O          -0.547202           
         O26       1.0000    0.33410   0.88500   0.76890   Biso      1.000     O          -0.532142           
         O27       1.0000    0.91920   0.48120   0.75990   Biso      1.000     O          -0.400036           
         O28       1.0000    0.33370   0.88550   0.14900   Biso      1.000     O          -0.520637           
         O29       1.0000    0.08240   0.56270   0.75680   Biso      1.000     O          -0.391313           
         O30       1.0000    0.43740   0.51910   0.16090   Biso      1.000     O          -0.382776           
         O31       1.0000    0.66570   0.55120   0.14740   Biso      1.000     O          -0.541689           
         O32       1.0000    0.48030   0.91760   0.75680   Biso      1.000     O          -0.387982           
         O33       1.0000    0.11450   0.44820   0.14900   Biso      1.000     O          -0.521404           
         O34       1.0000    0.48090   0.91830   0.16090   Biso      1.000     O          -0.382664           
         O35       1.0000    0.88500   0.33390   0.76990   Biso      1.000     O          -0.550014           
         O36       1.0000    0.25140   0.07750   0.15540   Biso      1.000     O          -0.506476 