
##########################################################################
#               Crystallographic Information Format file
#               Produced by PyCifRW module
#
#  This is a CIF file.  CIF has been adopted by the International
#  Union of Crystallography as the standard for data archiving and
#  transmission.
#
#  For information on this file format, follow the CIF links at
#  http://www.iucr.org
##########################################################################

data_image0

_cell_length_a                          10.8001
_cell_length_b                          11.6288
_cell_length_c                          25.3183
_cell_angle_alpha                       89.094
_cell_angle_beta                        87.425
_cell_angle_gamma                       78.44
_symmetry_space_group_name_H-M          'P 1'
_symmetry_int_tables_number             1
loop_
  _symmetry_equiv_pos_as_xyz
         'x, y, z' 
loop_
  _atom_site_label
  _atom_site_occupancy
  _atom_site_fract_x
  _atom_site_fract_y
  _atom_site_fract_z
  _atom_site_thermal_displace_type
  _atom_site_B_iso_or_equiv
  _atom_site_type_symbol
  _atom_site_charge
         Ag1       1.0000    0.72985   0.06545   0.01146   Biso      1.000     Ag          0.46598   
         Ag2       1.0000    0.27015   0.93455   0.98854   Biso      1.000     Ag          0.46598   
         Ag3       1.0000    0.49462   0.04417   0.11075   Biso      1.000     Ag          0.566233  
         Ag4       1.0000    0.50538   0.95583   0.88925   Biso      1.000     Ag          0.566232  
         Ag5       1.0000    0.50000   0.00000   0.00000   Biso      1.000     Ag          0.096306  
         Ag6       1.0000    0.53409   0.18609   0.93051   Biso      1.000     Ag          0.396054  
         Ag7       1.0000    0.46591   0.81391   0.06949   Biso      1.000     Ag          0.396054  
         Ag8       1.0000    0.57939   0.28395   0.03357   Biso      1.000     Ag          0.457997  
         Ag9       1.0000    0.42061   0.71605   0.96643   Biso      1.000     Ag          0.457997  
         Ag10      1.0000    0.62770   0.42357   0.94165   Biso      1.000     Ag          0.535338  
         Ag11      1.0000    0.37230   0.57643   0.05835   Biso      1.000     Ag          0.535337  
         Ag12      1.0000    0.40591   0.58778   0.42459   Biso      1.000     Ag          0.549087  
         Ag13      1.0000    0.59409   0.41222   0.57541   Biso      1.000     Ag          0.549089  
         Ag14      1.0000    0.49148   0.81492   0.43177   Biso      1.000     Ag          0.419629  
         Ag15      1.0000    0.50852   0.18508   0.56824   Biso      1.000     Ag          0.419755  
         Ag16      1.0000    0.40948   0.70196   0.52686   Biso      1.000     Ag          0.446131  
         Ag17      1.0000    0.59051   0.29804   0.47314   Biso      1.000     Ag          0.445915  
         Ag18      1.0000    0.26957   0.93194   0.50653   Biso      1.000     Ag          0.440107  
         Ag19      1.0000    0.73043   0.06806   0.49347   Biso      1.000     Ag          0.440013  
         Ag20      1.0000    0.50000   0.00000   0.50000   Biso      1.000     Ag          0.072192  
         Ag21      1.0000    0.44901   0.90847   0.60234   Biso      1.000     Ag          0.577249  
         Ag22      1.0000    0.55099   0.09153   0.39766   Biso      1.000     Ag          0.577264  
         Ag23      1.0000    0.96893   0.70428   0.25009   Biso      1.000     Ag          0.353558  
         Ag24      1.0000    0.03107   0.29572   0.74991   Biso      1.000     Ag          0.353591  
         C1        1.0000    0.07209   0.70868   0.13967   Biso      1.000     C          0.048197  
         C2        1.0000    0.92791   0.29132   0.86033   Biso      1.000     C          0.048197  
         C3        1.0000    0.07941   0.75048   0.08728   Biso      1.000     C          0.103452  
         C4        1.0000    0.92059   0.24952   0.91272   Biso      1.000     C          0.103452  
         C5        1.0000    0.96710   0.80661   0.06389   Biso      1.000     C          -0.073322           
         C6        1.0000    0.03290   0.19339   0.93611   Biso      1.000     C          -0.073322           
         C7        1.0000    0.85162   0.81779   0.09333   Biso      1.000     C          0.085137  
         C8        1.0000    0.14838   0.18221   0.90667   Biso      1.000     C          0.085137  
         C9        1.0000    0.85169   0.77217   0.14543   Biso      1.000     C          0.064778  
         C10       1.0000    0.14831   0.22783   0.85457   Biso      1.000     C          0.064778  
         C11       1.0000    0.19995   0.74183   0.06044   Biso      1.000     C          0.020141  
         C12       1.0000    0.80005   0.25817   0.93956   Biso      1.000     C          0.020141  
         C13       1.0000    0.29494   0.76662   0.03505   Biso      1.000     C          -0.512636           
         C14       1.0000    0.70506   0.23338   0.96495   Biso      1.000     C          -0.512636           
         C15       1.0000    0.73595   0.87708   0.07233   Biso      1.000     C          0.091147  
         C16       1.0000    0.26405   0.12292   0.92767   Biso      1.000     C          0.091146  
         C17       1.0000    0.62790   0.92558   0.05834   Biso      1.000     C          -0.474662           
         C18       1.0000    0.37210   0.07442   0.94166   Biso      1.000     C          -0.474662           
         C19       1.0000    0.87293   0.77750   0.35706   Biso      1.000     C          0.067467  
         C20       1.0000    0.12708   0.22250   0.64294   Biso      1.000     C          0.067524  
         C21       1.0000    0.87233   0.82592   0.40792   Biso      1.000     C          0.083147  
         C22       1.0000    0.12767   0.17408   0.59208   Biso      1.000     C          0.083052  
         C23       1.0000    0.98714   0.81521   0.43321   Biso      1.000     C          -0.073212           
         C24       1.0000    0.01286   0.18479   0.56679   Biso      1.000     C          -0.073143           
         C25       1.0000    0.09997   0.75958   0.40619   Biso      1.000     C          0.100761  
         C26       1.0000    0.90003   0.24042   0.59381   Biso      1.000     C          0.100617  
         C27       1.0000    0.09380   0.71612   0.35494   Biso      1.000     C          0.050011  
         C28       1.0000    0.90620   0.28388   0.64506   Biso      1.000     C          0.050022  
         C29       1.0000    0.21775   0.75264   0.43043   Biso      1.000     C          0.035001  
         C30       1.0000    0.78225   0.24736   0.56956   Biso      1.000     C          0.034861  
         C31       1.0000    0.30637   0.77090   0.45781   Biso      1.000     C          -0.532312           
         C32       1.0000    0.69363   0.22910   0.54219   Biso      1.000     C          -0.532059           
         C33       1.0000    0.75499   0.88594   0.43035   Biso      1.000     C          0.10267   
         C34       1.0000    0.24501   0.11406   0.56965   Biso      1.000     C          0.102728  
         C35       1.0000    0.64177   0.93121   0.44279   Biso      1.000     C          -0.456786           
         C36       1.0000    0.35823   0.06879   0.55721   Biso      1.000     C          -0.456897           
         C37       1.0000    0.69322   0.55163   0.43642   Biso      1.000     C          0.433334  
         C38       1.0000    0.30678   0.44837   0.56358   Biso      1.000     C          0.433333  
         C39       1.0000    0.83274   0.48181   0.43153   Biso      1.000     C          0.581022  
         C40       1.0000    0.16726   0.51819   0.56847   Biso      1.000     C          0.581021  
         C41       1.0000    0.17708   0.84543   0.60886   Biso      1.000     C          0.433403  
         C42       1.0000    0.82292   0.15457   0.39114   Biso      1.000     C          0.4334    
         C43       1.0000    0.10044   0.85206   0.66262   Biso      1.000     C          0.585062  
         C44       1.0000    0.89956   0.14794   0.33738   Biso      1.000     C          0.585062  
         C45       1.0000    0.34193   0.44804   0.92232   Biso      1.000     C          0.434156  
         C46       1.0000    0.65807   0.55196   0.07768   Biso      1.000     C          0.434156  
         C47       1.0000    0.20281   0.51609   0.91565   Biso      1.000     C          0.582852  
         C48       1.0000    0.79719   0.48391   0.08435   Biso      1.000     C          0.582852  
         C49       1.0000    0.66509   0.69771   0.58318   Biso      1.000     C          0.442594  
         C50       1.0000    0.33491   0.30229   0.41682   Biso      1.000     C          0.442583  
         C51       1.0000    0.79998   0.63168   0.59747   Biso      1.000     C          0.589788  
         C52       1.0000    0.20002   0.36832   0.40253   Biso      1.000     C          0.589784  
         C53       1.0000    0.79125   0.14760   0.11243   Biso      1.000     C          0.428461  
         C54       1.0000    0.20875   0.85240   0.88757   Biso      1.000     C          0.428461  
         C55       1.0000    0.85460   0.14495   0.16684   Biso      1.000     C          0.5866    
         C56       1.0000    0.14540   0.85505   0.83316   Biso      1.000     C          0.5866    
         C57       1.0000    0.69190   0.70049   0.92547   Biso      1.000     C          0.446936  
         C58       1.0000    0.30810   0.29951   0.07453   Biso      1.000     C          0.446936  
         C59       1.0000    0.83192   0.63815   0.91365   Biso      1.000     C          0.587694  
         C60       1.0000    0.16808   0.36185   0.08635   Biso      1.000     C          0.587694  
         C61       1.0000    0.65884   0.08620   0.81728   Biso      1.000     C          0.428724  
         C62       1.0000    0.34116   0.91380   0.18272   Biso      1.000     C          0.428724  
         C63       1.0000    0.75344   0.09965   0.77002   Biso      1.000     C          0.590627  
         C64       1.0000    0.24656   0.90035   0.22998   Biso      1.000     C          0.590628  
         C65       1.0000    0.53086   0.69789   0.32149   Biso      1.000     C          0.431685  
         C66       1.0000    0.46914   0.30210   0.67851   Biso      1.000     C          0.432362  
         C67       1.0000    0.60219   0.67641   0.26687   Biso      1.000     C          0.5868    
         C68       1.0000    0.39781   0.32359   0.73313   Biso      1.000     C          0.586626  
         H1        1.0000    0.15856   0.66841   0.15957   Biso      1.000     H          0.104886  
         H2        1.0000    0.84144   0.33159   0.84043   Biso      1.000     H          0.104886  
         H3        1.0000    0.96957   0.84172   0.02341   Biso      1.000     H          0.141353  
         H4        1.0000    0.03043   0.15828   0.97659   Biso      1.000     H          0.141353  
         H5        1.0000    0.76294   0.77769   0.16905   Biso      1.000     H          0.112513  
         H6        1.0000    0.23706   0.22231   0.83095   Biso      1.000     H          0.112513  
         H7        1.0000    0.78399   0.78174   0.33705   Biso      1.000     H          0.1107    
         H8        1.0000    0.21601   0.21826   0.66295   Biso      1.000     H          0.110806  
         H9        1.0000    0.99059   0.84925   0.47320   Biso      1.000     H          0.14172   
         H10       1.0000    0.00941   0.15075   0.52680   Biso      1.000     H          0.141723  
         H11       1.0000    0.18019   0.67485   0.33243   Biso      1.000     H          0.112553  
         H12       1.0000    0.81981   0.32515   0.66757   Biso      1.000     H          0.112553  
         F1        1.0000    0.86322   0.44713   0.38006   Biso      1.000     F          -0.194541           
         F2        1.0000    0.13678   0.55287   0.61994   Biso      1.000     F          -0.19454  
         F3        1.0000    0.91546   0.55046   0.44543   Biso      1.000     F          -0.205035           
         F4        1.0000    0.08454   0.44954   0.55457   Biso      1.000     F          -0.205034           
         F5        1.0000    0.85254   0.38287   0.46302   Biso      1.000     F          -0.197155           
         F6        1.0000    0.14746   0.61713   0.53698   Biso      1.000     F          -0.197164           
         F7        1.0000    0.97385   0.86222   0.65694   Biso      1.000     F          -0.195134           
         F8        1.0000    0.02615   0.13778   0.34306   Biso      1.000     F          -0.195135           
         F9        1.0000    0.11876   0.95332   0.68761   Biso      1.000     F          -0.227966           
         F10       1.0000    0.88124   0.04668   0.31239   Biso      1.000     F          -0.227965           
         F11       1.0000    0.14136   0.75870   0.69458   Biso      1.000     F          -0.177179           
         F12       1.0000    0.85864   0.24130   0.30542   Biso      1.000     F          -0.177179           
         F13       1.0000    0.11894   0.44725   0.93326   Biso      1.000     F          -0.211077           
         F14       1.0000    0.88106   0.55275   0.06674   Biso      1.000     F          -0.211078           
         F15       1.0000    0.17490   0.61798   0.94417   Biso      1.000     F          -0.194843           
         F16       1.0000    0.82510   0.38202   0.05583   Biso      1.000     F          -0.194843           
         F17       1.0000    0.18071   0.54348   0.86360   Biso      1.000     F          -0.190978           
         F18       1.0000    0.81929   0.45652   0.13640   Biso      1.000     F          -0.190978           
         F19       1.0000    0.81096   0.63267   0.65112   Biso      1.000     F          -0.190131           
         F20       1.0000    0.18904   0.36733   0.34888   Biso      1.000     F          -0.190133           
         F21       1.0000    0.89326   0.68057   0.57406   Biso      1.000     F          -0.187235           
         F22       1.0000    0.10674   0.31943   0.42594   Biso      1.000     F          -0.187236           
         F23       1.0000    0.82106   0.51554   0.58209   Biso      1.000     F          -0.228174           
         F24       1.0000    0.17894   0.48446   0.41791   Biso      1.000     F          -0.228183           
         F25       1.0000    0.85372   0.03617   0.19058   Biso      1.000     F          -0.226902           
         F26       1.0000    0.14628   0.96383   0.80942   Biso      1.000     F          -0.226903           
         F27       1.0000    0.79145   0.22913   0.20050   Biso      1.000     F          -0.19008  
         F28       1.0000    0.20855   0.77087   0.79950   Biso      1.000     F          -0.190079           
         F29       1.0000    0.97778   0.15666   0.16142   Biso      1.000     F          -0.195046           
         F30       1.0000    0.02222   0.84334   0.83858   Biso      1.000     F          -0.195046           
         F31       1.0000    0.91235   0.68584   0.94293   Biso      1.000     F          -0.192224           
         F32       1.0000    0.08765   0.31416   0.05707   Biso      1.000     F          -0.192224           
         F33       1.0000    0.85120   0.51972   0.92607   Biso      1.000     F          -0.233807           
         F34       1.0000    0.14880   0.48028   0.07393   Biso      1.000     F          -0.233807           
         F35       1.0000    0.86464   0.64680   0.86125   Biso      1.000     F          -0.183739           
         F36       1.0000    0.13536   0.35320   0.13875   Biso      1.000     F          -0.18374  
         F37       1.0000    0.87591   0.08110   0.78714   Biso      1.000     F          -0.221284           
         F38       1.0000    0.12409   0.91890   0.21286   Biso      1.000     F          -0.221284           
         F39       1.0000    0.75121   0.02341   0.73003   Biso      1.000     F          -0.186879           
         F40       1.0000    0.24879   0.97659   0.26997   Biso      1.000     F          -0.186876           
         F41       1.0000    0.72810   0.21254   0.74914   Biso      1.000     F          -0.225725           
         F42       1.0000    0.27190   0.78746   0.25086   Biso      1.000     F          -0.225726           
         F43       1.0000    0.55542   0.60640   0.23363   Biso      1.000     F          -0.181069           
         F44       1.0000    0.44458   0.39360   0.76637   Biso      1.000     F          -0.181042           
         F45       1.0000    0.72641   0.62214   0.27641   Biso      1.000     F          -0.227992           
         F46       1.0000    0.27359   0.37786   0.72359   Biso      1.000     F          -0.227987           
         F47       1.0000    0.60823   0.77913   0.23970   Biso      1.000     F          -0.210793           
         F48       1.0000    0.39177   0.22087   0.76030   Biso      1.000     F          -0.21078  
         N1        1.0000    0.96080   0.72037   0.16788   Biso      1.000     N          -0.175203           
         N2        1.0000    0.03920   0.27963   0.83212   Biso      1.000     N          -0.175208           
         N3        1.0000    0.98180   0.72492   0.33148   Biso      1.000     N          -0.173104           
         N4        1.0000    0.01820   0.27508   0.66852   Biso      1.000     N          -0.17328  
         O1        1.0000    0.68049   0.65981   0.42827   Biso      1.000     O          -0.461717           
         O2        1.0000    0.31951   0.34019   0.57173   Biso      1.000     O          -0.46172  
         O3        1.0000    0.60791   0.49157   0.44668   Biso      1.000     O          -0.485051           
         O4        1.0000    0.39209   0.50843   0.55332   Biso      1.000     O          -0.485029           
         O5        1.0000    0.29391   0.79733   0.61219   Biso      1.000     O          -0.514205           
         O6        1.0000    0.70609   0.20267   0.38781   Biso      1.000     O          -0.514206           
         O7        1.0000    0.11828   0.89375   0.56977   Biso      1.000     O          -0.472082           
         O8        1.0000    0.88172   0.10625   0.43023   Biso      1.000     O          -0.472068           
         O9        1.0000    0.41649   0.50578   0.94322   Biso      1.000     O          -0.502522           
         O10       1.0000    0.58351   0.49422   0.05678   Biso      1.000     O          -0.502522           
         O11       1.0000    0.36366   0.34413   0.90656   Biso      1.000     O          -0.449611           
         O12       1.0000    0.63634   0.65587   0.09344   Biso      1.000     O          -0.449611           
         O13       1.0000    0.64658   0.80794   0.58739   Biso      1.000     O          -0.477697           
         O14       1.0000    0.35342   0.19206   0.41261   Biso      1.000     O          -0.477694           
         O15       1.0000    0.58958   0.63256   0.57051   Biso      1.000     O          -0.45045  
         O16       1.0000    0.41042   0.36744   0.42949   Biso      1.000     O          -0.450357           
         O17       1.0000    0.67343   0.19270   0.11261   Biso      1.000     O          -0.519411           
         O18       1.0000    0.32657   0.80730   0.88739   Biso      1.000     O          -0.519411           
         O19       1.0000    0.86451   0.09866   0.07526   Biso      1.000     O          -0.480846           
         O20       1.0000    0.13549   0.90134   0.92474   Biso      1.000     O          -0.480846           
         O21       1.0000    0.61304   0.63145   0.93290   Biso      1.000     O          -0.465725           
         O22       1.0000    0.38696   0.36855   0.06710   Biso      1.000     O          -0.465725           
         O23       1.0000    0.67184   0.80984   0.92615   Biso      1.000     O          -0.481985           
         O24       1.0000    0.32816   0.19016   0.07385   Biso      1.000     O          -0.481985           
         O25       1.0000    0.63378   0.98460   0.82233   Biso      1.000     O          -0.460228           
         O26       1.0000    0.36622   0.01540   0.17767   Biso      1.000     O          -0.460228           
         O27       1.0000    0.62427   0.17848   0.84441   Biso      1.000     O          -0.485259           
         O28       1.0000    0.37573   0.82152   0.15559   Biso      1.000     O          -0.485259           
         O29       1.0000    0.53287   0.79655   0.34152   Biso      1.000     O          -0.490141           
         O30       1.0000    0.46713   0.20345   0.65848   Biso      1.000     O          -0.489938           
         O31       1.0000    0.48963   0.61041   0.33932   Biso      1.000     O          -0.493813           
         O32       1.0000    0.51037   0.38958   0.66068   Biso      1.000     O          -0.494438 