
##########################################################################
#               Crystallographic Information Format file
#               Produced by PyCifRW module
#
#  This is a CIF file.  CIF has been adopted by the International
#  Union of Crystallography as the standard for data archiving and
#  transmission.
#
#  For information on this file format, follow the CIF links at
#  http://www.iucr.org
##########################################################################

data_image0

_cell_length_a                          9.0211
_cell_length_b                          9.0211
_cell_length_c                          12.72
_cell_angle_alpha                       85.2089
_cell_angle_beta                        85.2089
_cell_angle_gamma                       79.3769
_symmetry_space_group_name_H-M          'P 1'
_symmetry_int_tables_number             1
loop_
  _symmetry_equiv_pos_as_xyz
         'x, y, z' 
loop_
  _atom_site_label
  _atom_site_occupancy
  _atom_site_fract_x
  _atom_site_fract_y
  _atom_site_fract_z
  _atom_site_thermal_displace_type
  _atom_site_B_iso_or_equiv
  _atom_site_type_symbol
  _atom_site_charge
         C1        1.0000    0.13990   0.96510   0.43880   Biso      1.000     C          0.251972  
         C2        1.0000    0.13910   0.04550   0.52290   Biso      1.000     C          -0.12443399999999999          
         C3        1.0000    0.00360   0.08400   0.58990   Biso      1.000     C          0.276482  
         C4        1.0000    0.42660   0.93700   0.92120   Biso      1.000     C          -0.12121099999999999          
         C5        1.0000    0.41990   0.87910   0.02560   Biso      1.000     C          0.250973  
         C6        1.0000    0.50820   0.05420   0.89060   Biso      1.000     C          0.294966  
         C7        1.0000    0.03490   0.86010   0.06120   Biso      1.000     C          0.251972  
         C8        1.0000    0.91600   0.99640   0.91010   Biso      1.000     C          0.276482  
         C9        1.0000    0.06300   0.57340   0.57880   Biso      1.000     C          -0.12121099999999999          
         C10       1.0000    0.12090   0.58010   0.47440   Biso      1.000     C          0.250973  
         C11       1.0000    0.94580   0.49180   0.60940   Biso      1.000     C          0.294966  
         C12       1.0000    0.86090   0.95450   0.47710   Biso      1.000     C          -0.124458           
         C13       1.0000    0.95450   0.86090   0.97710   Biso      1.000     C          -0.12443399999999999          
         C14       1.0000    0.99640   0.91600   0.41010   Biso      1.000     C          0.276485  
         C15       1.0000    0.57340   0.06300   0.07880   Biso      1.000     C          -0.12121099999999999          
         C16       1.0000    0.58010   0.12090   0.97440   Biso      1.000     C          0.250973  
         C17       1.0000    0.49180   0.94580   0.10940   Biso      1.000     C          0.294966  
         C18       1.0000    0.04550   0.13910   0.02290   Biso      1.000     C          -0.124458           
         C19       1.0000    0.96510   0.13990   0.93880   Biso      1.000     C          0.25199299999999997           
         C20       1.0000    0.08400   0.00360   0.08990   Biso      1.000     C          0.276486  
         C21       1.0000    0.93700   0.42660   0.42120   Biso      1.000     C          -0.12121099999999999          
         C22       1.0000    0.87910   0.41990   0.52560   Biso      1.000     C          0.250973  
         C23       1.0000    0.05420   0.50820   0.39060   Biso      1.000     C          0.294966  
         C24       1.0000    0.86010   0.03490   0.56120   Biso      1.000     C          0.251994  
         Cl1       1.0000    0.30210   0.09830   0.55860   Biso      1.000     Cl          -0.028606           
         Cl2       1.0000    0.33603   0.86863   0.82660   Biso      1.000     Cl          -0.026623           
         Cl3       1.0000    0.90170   0.69790   0.94140   Biso      1.000     Cl          -0.028607           
         Cl4       1.0000    0.13137   0.66397   0.67340   Biso      1.000     Cl          -0.026623           
         Cl5       1.0000    0.69790   0.90170   0.44140   Biso      1.000     Cl          -0.028602999999999996         
         Cl6       1.0000    0.86863   0.33603   0.32660   Biso      1.000     Cl          -0.026623           
         Cl7       1.0000    0.09830   0.30210   0.05860   Biso      1.000     Cl          -0.028602999999999996         
         Cl8       1.0000    0.66397   0.13137   0.17340   Biso      1.000     Cl          -0.026622000000000003         
         O1        1.0000    0.36060   0.76540   0.05870   Biso      1.000     O          -0.5151819999999999           
         O2        1.0000    0.53140   0.10720   0.79860   Biso      1.000     O          -0.46204399999999995          
         O3        1.0000    0.74470   0.07270   0.62420   Biso      1.000     O          -0.46466999999999997          
         O4        1.0000    0.07270   0.74470   0.12420   Biso      1.000     O          -0.464668           
         O5        1.0000    0.83830   0.00790   0.83160   Biso      1.000     O          -0.436332           
         O6        1.0000    0.23460   0.63940   0.44130   Biso      1.000     O          -0.5151819999999999           
         O7        1.0000    0.89280   0.46860   0.70140   Biso      1.000     O          -0.46204399999999995          
         O8        1.0000    0.00790   0.83830   0.33160   Biso      1.000     O          -0.43633299999999997          
         O9        1.0000    0.25530   0.92730   0.37580   Biso      1.000     O          -0.464668           
         O10       1.0000    0.46860   0.89280   0.20140   Biso      1.000     O          -0.46204399999999995          
         O11       1.0000    0.92730   0.25530   0.87580   Biso      1.000     O          -0.46466999999999997          
         O12       1.0000    0.16170   0.99210   0.16840   Biso      1.000     O          -0.436332           
         O13       1.0000    0.76540   0.36060   0.55870   Biso      1.000     O          -0.5151819999999999           
         O14       1.0000    0.10720   0.53140   0.29860   Biso      1.000     O          -0.46204399999999995          
         O15       1.0000    0.99210   0.16170   0.66840   Biso      1.000     O          -0.43633299999999997          
         O16       1.0000    0.63940   0.23460   0.94130   Biso      1.000     O          -0.515181           
         Th1       1.0000    0.73485   0.26515   0.75000   Biso      1.000     Th          2.209412  
         Th2       1.0000    0.26515   0.73485   0.25000   Biso      1.000     Th          2.209412 