
##########################################################################
#               Crystallographic Information Format file
#               Produced by PyCifRW module
#
#  This is a CIF file.  CIF has been adopted by the International
#  Union of Crystallography as the standard for data archiving and
#  transmission.
#
#  For information on this file format, follow the CIF links at
#  http://www.iucr.org
##########################################################################

data_image0

_cell_length_a                          6.6544
_cell_length_b                          7.038
_cell_length_c                          7.7938
_cell_angle_alpha                       111.16
_cell_angle_beta                        95.307
_cell_angle_gamma                       90.59
_symmetry_space_group_name_H-M          'P 1'
_symmetry_int_tables_number             1
loop_
  _symmetry_equiv_pos_as_xyz
         'x, y, z' 
loop_
  _atom_site_label
  _atom_site_occupancy
  _atom_site_fract_x
  _atom_site_fract_y
  _atom_site_fract_z
  _atom_site_thermal_displace_type
  _atom_site_B_iso_or_equiv
  _atom_site_type_symbol
  _atom_site_charge
         C1        1.0000    0.06200   0.90790   0.50010   Biso      1.000     C          0.520492  
         C2        1.0000    0.93800   0.09210   0.49990   Biso      1.000     C          0.5204949999999999  
         H1        1.0000    0.36220   0.72040   0.79780   Biso      1.000     H          -0.104716           
         H2        1.0000    0.63780   0.27960   0.20220   Biso      1.000     H          -0.104716           
         Nd1       1.0000    0.86983   0.77765   0.06652   Biso      1.000     Nd          2.203473  
         Nd2       1.0000    0.13017   0.22235   0.93348   Biso      1.000     Nd          2.203471  
         O1        1.0000    0.81850   0.42690   0.02710   Biso      1.000     O          -0.939414           
         O2        1.0000    0.47830   0.22760   0.89800   Biso      1.000     O          -0.816024           
         O3        1.0000    0.80080   0.06100   0.96530   Biso      1.000     O          -0.9646680000000001           
         O4        1.0000    0.84100   0.07780   0.35050   Biso      1.000     O          -0.6003229999999999           
         O5        1.0000    0.05280   0.75910   0.35110   Biso      1.000     O          -0.609981           
         O6        1.0000    0.19920   0.93900   0.03470   Biso      1.000     O          -0.9646680000000001           
         O7        1.0000    0.52170   0.77240   0.10200   Biso      1.000     O          -0.816026           
         O8        1.0000    0.94720   0.24090   0.64890   Biso      1.000     O          -0.6099829999999999           
         O9        1.0000    0.18150   0.57310   0.97290   Biso      1.000     O          -0.9394129999999999           
         O10       1.0000    0.15900   0.92220   0.64950   Biso      1.000     O          -0.6003229999999999           
         P1        1.0000    0.67407   0.25210   0.02081   Biso      1.000     P          1.3111620000000002  
         P2        1.0000    0.32593   0.74790   0.97919   Biso      1.000     P          1.3111629999999999 