
##########################################################################
#               Crystallographic Information Format file
#               Produced by PyCifRW module
#
#  This is a CIF file.  CIF has been adopted by the International
#  Union of Crystallography as the standard for data archiving and
#  transmission.
#
#  For information on this file format, follow the CIF links at
#  http://www.iucr.org
##########################################################################

data_image0

_cell_length_a                          6.6764
_cell_length_b                          7.0684
_cell_length_c                          7.8103
_cell_angle_alpha                       111.141
_cell_angle_beta                        95.415
_cell_angle_gamma                       90.457
_symmetry_space_group_name_H-M          'P 1'
_symmetry_int_tables_number             1
loop_
  _symmetry_equiv_pos_as_xyz
         'x, y, z' 
loop_
  _atom_site_label
  _atom_site_occupancy
  _atom_site_fract_x
  _atom_site_fract_y
  _atom_site_fract_z
  _atom_site_thermal_displace_type
  _atom_site_B_iso_or_equiv
  _atom_site_type_symbol
  _atom_site_charge
         C1        1.0000    0.06100   0.90830   0.50060   Biso      1.000     C          0.519171  
         C2        1.0000    0.93900   0.09170   0.49940   Biso      1.000     C          0.519174  
         H1        1.0000    0.36220   0.72040   0.79780   Biso      1.000     H          -0.10865  
         H2        1.0000    0.63780   0.27960   0.20220   Biso      1.000     H          -0.10865  
         O1        1.0000    0.19850   0.93740   0.03410   Biso      1.000     O          -0.9654719999999999           
         O2        1.0000    0.81680   0.42530   0.02500   Biso      1.000     O          -0.9386709999999999           
         O3        1.0000    0.48020   0.22810   0.89870   Biso      1.000     O          -0.818454           
         O4        1.0000    0.80150   0.06260   0.96590   Biso      1.000     O          -0.9654719999999999           
         O5        1.0000    0.83970   0.07600   0.35090   Biso      1.000     O          -0.600518           
         O6        1.0000    0.05220   0.75990   0.35220   Biso      1.000     O          -0.609808           
         O7        1.0000    0.16030   0.92400   0.64910   Biso      1.000     O          -0.600517           
         O8        1.0000    0.51980   0.77190   0.10130   Biso      1.000     O          -0.818454           
         O9        1.0000    0.94780   0.24010   0.64780   Biso      1.000     O          -0.609808           
         O10       1.0000    0.18320   0.57470   0.97500   Biso      1.000     O          -0.9386700000000001           
         P1        1.0000    0.67498   0.25254   0.02073   Biso      1.000     P          1.3135620000000001  
         P2        1.0000    0.32502   0.74746   0.97927   Biso      1.000     P          1.3135620000000001  
         Pr1       1.0000    0.13180   0.22279   0.93407   Biso      1.000     Pr          2.208838  
         Pr2       1.0000    0.86820   0.77721   0.06593   Biso      1.000     Pr          2.208838 