
##########################################################################
#               Crystallographic Information Format file
#               Produced by PyCifRW module
#
#  This is a CIF file.  CIF has been adopted by the International
#  Union of Crystallography as the standard for data archiving and
#  transmission.
#
#  For information on this file format, follow the CIF links at
#  http://www.iucr.org
##########################################################################

data_image0

_cell_length_a                          6.5434
_cell_length_b                          6.9311
_cell_length_c                          7.7465
_cell_angle_alpha                       111.487
_cell_angle_beta                        95.645
_cell_angle_gamma                       90.833
_symmetry_space_group_name_H-M          'P 1'
_symmetry_int_tables_number             1
loop_
  _symmetry_equiv_pos_as_xyz
         'x, y, z' 
loop_
  _atom_site_label
  _atom_site_occupancy
  _atom_site_fract_x
  _atom_site_fract_y
  _atom_site_fract_z
  _atom_site_thermal_displace_type
  _atom_site_B_iso_or_equiv
  _atom_site_type_symbol
  _atom_site_charge
         C1        1.0000    0.05910   0.90580   0.50090   Biso      1.000     C          0.523105  
         C2        1.0000    0.94090   0.09420   0.49910   Biso      1.000     C          0.523105  
         Gd1       1.0000    0.87397   0.77948   0.06766   Biso      1.000     Gd          2.162527  
         Gd2       1.0000    0.12603   0.22052   0.93234   Biso      1.000     Gd          2.162527  
         H1        1.0000    0.36220   0.72040   0.79780   Biso      1.000     H          -0.10208300000000001          
         H2        1.0000    0.63780   0.27960   0.20220   Biso      1.000     H          -0.10208300000000001          
         O1        1.0000    0.81750   0.42790   0.02420   Biso      1.000     O          -0.930773           
         O2        1.0000    0.47200   0.22400   0.89520   Biso      1.000     O          -0.814515           
         O3        1.0000    0.80060   0.05850   0.96430   Biso      1.000     O          -0.963507           
         O4        1.0000    0.84750   0.08340   0.34740   Biso      1.000     O          -0.5928720000000001           
         O5        1.0000    0.05180   0.75540   0.34830   Biso      1.000     O          -0.6079   
         O6        1.0000    0.19940   0.94150   0.03570   Biso      1.000     O          -0.963507           
         O7        1.0000    0.52800   0.77600   0.10480   Biso      1.000     O          -0.814515           
         O8        1.0000    0.94820   0.24460   0.65170   Biso      1.000     O          -0.6079   
         O9        1.0000    0.18250   0.57210   0.97580   Biso      1.000     O          -0.930773           
         O10       1.0000    0.15250   0.91660   0.65260   Biso      1.000     O          -0.5928720000000001           
         P1        1.0000    0.67160   0.25208   0.02006   Biso      1.000     P          1.326019  
         P2        1.0000    0.32840   0.74792   0.97994   Biso      1.000     P          1.326018 