
##########################################################################
#               Crystallographic Information Format file
#               Produced by PyCifRW module
#
#  This is a CIF file.  CIF has been adopted by the International
#  Union of Crystallography as the standard for data archiving and
#  transmission.
#
#  For information on this file format, follow the CIF links at
#  http://www.iucr.org
##########################################################################

data_image0

_cell_length_a                          6.4075
_cell_length_b                          6.805
_cell_length_c                          7.6647
_cell_angle_alpha                       111.753
_cell_angle_beta                        95.858
_cell_angle_gamma                       91.204
_symmetry_space_group_name_H-M          'P 1'
_symmetry_int_tables_number             1
loop_
  _symmetry_equiv_pos_as_xyz
         'x, y, z' 
loop_
  _atom_site_label
  _atom_site_occupancy
  _atom_site_fract_x
  _atom_site_fract_y
  _atom_site_fract_z
  _atom_site_thermal_displace_type
  _atom_site_B_iso_or_equiv
  _atom_site_type_symbol
  _atom_site_charge
         C1        1.0000    0.05710   0.90180   0.50050   Biso      1.000     C          0.51738   
         C2        1.0000    0.94290   0.09820   0.49950   Biso      1.000     C          0.51738   
         H1        1.0000    0.36220   0.72040   0.79780   Biso      1.000     H          -0.09577  
         H2        1.0000    0.63780   0.27960   0.20220   Biso      1.000     H          -0.095767           
         O1        1.0000    0.19690   0.94210   0.03530   Biso      1.000     O          -0.769754           
         O2        1.0000    0.81840   0.43220   0.02430   Biso      1.000     O          -0.727717           
         O3        1.0000    0.46400   0.22000   0.89320   Biso      1.000     O          -0.665375           
         O4        1.0000    0.80310   0.05790   0.96470   Biso      1.000     O          -0.769736           
         O5        1.0000    0.85450   0.08840   0.34470   Biso      1.000     O          -0.43233  
         O6        1.0000    0.04940   0.75430   0.34510   Biso      1.000     O          -0.426085           
         O7        1.0000    0.14550   0.91160   0.65530   Biso      1.000     O          -0.432326           
         O8        1.0000    0.53600   0.78000   0.10680   Biso      1.000     O          -0.665384           
         O9        1.0000    0.95060   0.24570   0.65490   Biso      1.000     O          -0.426087           
         O10       1.0000    0.18160   0.56780   0.97570   Biso      1.000     O          -0.727738           
         P1        1.0000    0.66890   0.25260   0.02070   Biso      1.000     P          1.206     
         P2        1.0000    0.33110   0.74740   0.97930   Biso      1.000     P          1.206018  
         Yb1       1.0000    0.12249   0.21853   0.93138   Biso      1.000     Yb          1.393647  
         Yb2       1.0000    0.87751   0.78147   0.06862   Biso      1.000     Yb          1.393645 