
##########################################################################
#               Crystallographic Information Format file
#               Produced by PyCifRW module
#
#  This is a CIF file.  CIF has been adopted by the International
#  Union of Crystallography as the standard for data archiving and
#  transmission.
#
#  For information on this file format, follow the CIF links at
#  http://www.iucr.org
##########################################################################

data_image0

_cell_length_a                          15.0488
_cell_length_b                          15.0488
_cell_length_c                          15.0488
_cell_angle_alpha                       77.2864
_cell_angle_beta                        77.2864
_cell_angle_gamma                       77.2864
_symmetry_space_group_name_H-M          'P 1'
_symmetry_int_tables_number             1
loop_
  _symmetry_equiv_pos_as_xyz
         'x, y, z' 
loop_
  _atom_site_label
  _atom_site_occupancy
  _atom_site_fract_x
  _atom_site_fract_y
  _atom_site_fract_z
  _atom_site_thermal_displace_type
  _atom_site_B_iso_or_equiv
  _atom_site_type_symbol
  _atom_site_charge
         C1        1.0000    0.99150   0.43510   0.42250   Biso      1.000     C          0.148482  
         C2        1.0000    0.98180   0.38710   0.27800   Biso      1.000     C          -0.000314           
         C3        1.0000    0.43930   0.98220   0.16930   Biso      1.000     C          0.595332  
         C4        1.0000    0.32170   0.98020   0.29730   Biso      1.000     C          -0.131425           
         C5        1.0000    0.41320   0.98430   0.27460   Biso      1.000     C          0.007315  
         C6        1.0000    0.32920   0.98710   0.45030   Biso      1.000     C          -0.171344           
         C7        1.0000    0.45580   0.98960   0.34400   Biso      1.000     C          -0.167514           
         C8        1.0000    0.42250   0.99150   0.43510   Biso      1.000     C          0.148365  
         C9        1.0000    0.49090   0.00070   0.47630   Biso      1.000     C          -0.062838           
         C10       1.0000    0.27800   0.98180   0.38710   Biso      1.000     C          -0.005758           
         C11       1.0000    0.82440   0.01600   0.56760   Biso      1.000     C          0.6300399999999999  
         C12       1.0000    0.16930   0.43930   0.98220   Biso      1.000     C          0.5914010000000001  
         C13       1.0000    0.29730   0.32170   0.98020   Biso      1.000     C          -0.131875           
         C14       1.0000    0.27460   0.41320   0.98430   Biso      1.000     C          0.012587000000000001          
         C15       1.0000    0.45030   0.32920   0.98710   Biso      1.000     C          -0.17133800000000002          
         C16       1.0000    0.34400   0.45580   0.98960   Biso      1.000     C          -0.168725           
         C17       1.0000    0.43510   0.42250   0.99150   Biso      1.000     C          0.148895  
         C18       1.0000    0.47630   0.49090   0.00070   Biso      1.000     C          -0.06271399999999999          
         C19       1.0000    0.38710   0.27800   0.98180   Biso      1.000     C          -0.0054020000000000006        
         C20       1.0000    0.56760   0.82440   0.01600   Biso      1.000     C          0.630146  
         C21       1.0000    0.98220   0.16930   0.43930   Biso      1.000     C          0.5953890000000001  
         C22       1.0000    0.98020   0.29730   0.32170   Biso      1.000     C          -0.132363           
         C23       1.0000    0.98430   0.27460   0.41320   Biso      1.000     C          0.007711  
         C24       1.0000    0.98710   0.45030   0.32920   Biso      1.000     C          -0.171881           
         C25       1.0000    0.01600   0.56760   0.82440   Biso      1.000     C          0.6257659999999999  
         C26       1.0000    0.56070   0.01780   0.83070   Biso      1.000     C          0.595333  
         C27       1.0000    0.67830   0.01980   0.70270   Biso      1.000     C          -0.131424           
         C28       1.0000    0.58680   0.01570   0.72540   Biso      1.000     C          0.007311  
         C29       1.0000    0.98400   0.43240   0.17560   Biso      1.000     C          0.6257659999999999  
         C30       1.0000    0.01820   0.61290   0.72200   Biso      1.000     C          -0.000315           
         C31       1.0000    0.99930   0.52370   0.50910   Biso      1.000     C          -0.06269  
         C32       1.0000    0.00850   0.56490   0.57750   Biso      1.000     C          0.14844200000000002           
         C33       1.0000    0.01040   0.65600   0.54420   Biso      1.000     C          -0.167754           
         C34       1.0000    0.01290   0.54970   0.67080   Biso      1.000     C          -0.171878           
         C35       1.0000    0.01570   0.72540   0.58680   Biso      1.000     C          0.0077150000000000005         
         C36       1.0000    0.01980   0.70270   0.67830   Biso      1.000     C          -0.132353           
         C37       1.0000    0.01780   0.83070   0.56070   Biso      1.000     C          0.595388  
         C38       1.0000    0.43240   0.17560   0.98400   Biso      1.000     C          0.630146  
         C39       1.0000    0.61290   0.72200   0.01820   Biso      1.000     C          -0.005411           
         C40       1.0000    0.98960   0.34400   0.45580   Biso      1.000     C          -0.167731           
         C41       1.0000    0.52370   0.50910   0.99930   Biso      1.000     C          -0.063324           
         C42       1.0000    0.65600   0.54420   0.01040   Biso      1.000     C          -0.168723           
         C43       1.0000    0.54970   0.67080   0.01290   Biso      1.000     C          -0.17133900000000002          
         C44       1.0000    0.72540   0.58680   0.01570   Biso      1.000     C          0.012581  
         C45       1.0000    0.70270   0.67830   0.01980   Biso      1.000     C          -0.131863           
         C46       1.0000    0.83070   0.56070   0.01780   Biso      1.000     C          0.5914010000000001  
         C47       1.0000    0.17560   0.98400   0.43240   Biso      1.000     C          0.630039  
         C48       1.0000    0.72200   0.01820   0.61290   Biso      1.000     C          -0.005762           
         C49       1.0000    0.50910   0.99930   0.52370   Biso      1.000     C          -0.063446           
         C50       1.0000    0.57750   0.00850   0.56490   Biso      1.000     C          0.14841400000000002           
         C51       1.0000    0.54420   0.01040   0.65600   Biso      1.000     C          -0.167489           
         C52       1.0000    0.67080   0.01290   0.54970   Biso      1.000     C          -0.17133900000000002          
         C53       1.0000    0.56490   0.57750   0.00850   Biso      1.000     C          0.148954  
         C54       1.0000    0.00070   0.47630   0.49090   Biso      1.000     C          -0.063276           
         Cu1       1.0000    0.58050   0.01294   0.01284   Biso      1.000     Cu          0.8733850000000001  
         Cu2       1.0000    0.41950   0.98706   0.98716   Biso      1.000     Cu          0.873402  
         Cu3       1.0000    0.01284   0.58050   0.01294   Biso      1.000     Cu          0.8412620000000001  
         Cu4       1.0000    0.01294   0.01284   0.58050   Biso      1.000     Cu          0.8733780000000001  
         Cu5       1.0000    0.98716   0.41950   0.98706   Biso      1.000     Cu          0.841256  
         Cu6       1.0000    0.98706   0.98716   0.41950   Biso      1.000     Cu          0.873376  
         H1        1.0000    0.28920   0.97620   0.25280   Biso      1.000     H          0.132938  
         H2        1.0000    0.29740   0.98790   0.51070   Biso      1.000     H          0.109856  
         H3        1.0000    0.51850   0.99230   0.32570   Biso      1.000     H          0.086949  
         H4        1.0000    0.46070   0.98530   0.57170   Biso      1.000     H          0.099814  
         H5        1.0000    0.25280   0.28920   0.97620   Biso      1.000     H          0.133249  
         H6        1.0000    0.51070   0.29740   0.98790   Biso      1.000     H          0.10995799999999999           
         H7        1.0000    0.32570   0.51850   0.99230   Biso      1.000     H          0.087627  
         H8        1.0000    0.57170   0.46070   0.98530   Biso      1.000     H          0.09995599999999999           
         H9        1.0000    0.97620   0.25280   0.28920   Biso      1.000     H          0.133407  
         H10       1.0000    0.01470   0.42830   0.53930   Biso      1.000     H          0.101173  
         H11       1.0000    0.99230   0.32570   0.51850   Biso      1.000     H          0.08706699999999999           
         H12       1.0000    0.98790   0.51070   0.29740   Biso      1.000     H          0.11018399999999999           
         H13       1.0000    0.00770   0.67430   0.48150   Biso      1.000     H          0.087065  
         H14       1.0000    0.02380   0.74720   0.71080   Biso      1.000     H          0.133406  
         H15       1.0000    0.42830   0.53930   0.01470   Biso      1.000     H          0.099936  
         H16       1.0000    0.67430   0.48150   0.00770   Biso      1.000     H          0.08763   
         H17       1.0000    0.48930   0.70260   0.01210   Biso      1.000     H          0.10996099999999999           
         H18       1.0000    0.01210   0.48930   0.70260   Biso      1.000     H          0.11018199999999999           
         H19       1.0000    0.53930   0.01470   0.42830   Biso      1.000     H          0.09979299999999999           
         H20       1.0000    0.48150   0.00770   0.67430   Biso      1.000     H          0.08695800000000001           
         H21       1.0000    0.70260   0.01210   0.48930   Biso      1.000     H          0.109856  
         H22       1.0000    0.71080   0.02380   0.74720   Biso      1.000     H          0.132938  
         H23       1.0000    0.74720   0.71080   0.02380   Biso      1.000     H          0.133245  
         H24       1.0000    0.98530   0.57170   0.46070   Biso      1.000     H          0.101154  
         O1        1.0000    0.47930   0.00220   0.85780   Biso      1.000     O          -0.522698           
         O2        1.0000    0.12240   0.97590   0.38540   Biso      1.000     O          -0.543014           
         O3        1.0000    0.14660   0.99570   0.51420   Biso      1.000     O          -0.575519           
         O4        1.0000    0.87700   0.61800   0.02250   Biso      1.000     O          -0.49502799999999997          
         O5        1.0000    0.38540   0.12240   0.97590   Biso      1.000     O          -0.5428430000000001           
         O6        1.0000    0.51420   0.14660   0.99570   Biso      1.000     O          -0.5755899999999999           
         O7        1.0000    0.02250   0.87700   0.61800   Biso      1.000     O          -0.501862           
         O8        1.0000    0.61800   0.02250   0.87700   Biso      1.000     O          -0.502065           
         O9        1.0000    0.00220   0.85780   0.47930   Biso      1.000     O          -0.5228189999999999           
         O10       1.0000    0.85780   0.47930   0.00220   Biso      1.000     O          -0.515497           
         O11       1.0000    0.00430   0.48580   0.85340   Biso      1.000     O          -0.571743           
         O12       1.0000    0.12300   0.38200   0.97750   Biso      1.000     O          -0.49502799999999997          
         O13       1.0000    0.99780   0.14220   0.52070   Biso      1.000     O          -0.52282  
         O14       1.0000    0.97750   0.12300   0.38200   Biso      1.000     O          -0.501861           
         O15       1.0000    0.48580   0.85340   0.00430   Biso      1.000     O          -0.575593           
         O16       1.0000    0.61460   0.87760   0.02410   Biso      1.000     O          -0.54284  
         O17       1.0000    0.14220   0.52070   0.99780   Biso      1.000     O          -0.515497           
         O18       1.0000    0.85340   0.00430   0.48580   Biso      1.000     O          -0.575519           
         O19       1.0000    0.87760   0.02410   0.61460   Biso      1.000     O          -0.543014           
         O20       1.0000    0.52070   0.99780   0.14220   Biso      1.000     O          -0.522694           
         O21       1.0000    0.38200   0.97750   0.12300   Biso      1.000     O          -0.5020680000000001           
         O22       1.0000    0.97590   0.38540   0.12240   Biso      1.000     O          -0.538161           
         O23       1.0000    0.02410   0.61460   0.87760   Biso      1.000     O          -0.5381630000000001           
         O24       1.0000    0.99570   0.51420   0.14660   Biso      1.000     O          -0.571743 