
##########################################################################
#               Crystallographic Information Format file
#               Produced by PyCifRW module
#
#  This is a CIF file.  CIF has been adopted by the International
#  Union of Crystallography as the standard for data archiving and
#  transmission.
#
#  For information on this file format, follow the CIF links at
#  http://www.iucr.org
##########################################################################

data_image0

_cell_length_a                          8.8802
_cell_length_b                          12.08
_cell_length_c                          16.615
_cell_angle_alpha                       90
_cell_angle_beta                        90
_cell_angle_gamma                       109.32
_symmetry_space_group_name_H-M          'P 1'
_symmetry_int_tables_number             1
loop_
  _symmetry_equiv_pos_as_xyz
         'x, y, z' 
loop_
  _atom_site_label
  _atom_site_occupancy
  _atom_site_fract_x
  _atom_site_fract_y
  _atom_site_fract_z
  _atom_site_thermal_displace_type
  _atom_site_B_iso_or_equiv
  _atom_site_type_symbol
  _atom_site_charge
         C1        1.0000    0.89770   0.38460   0.24240   Biso      1.000     C          -0.18873800000000002          
         C2        1.0000    0.37960   0.49750   0.44710   Biso      1.000     C          -0.17443  
         C3        1.0000    0.37000   0.39800   0.49080   Biso      1.000     C          0.23389200000000002           
         C4        1.0000    0.22630   0.19370   0.51310   Biso      1.000     C          -0.171474           
         C5        1.0000    0.34190   0.14010   0.47610   Biso      1.000     C          0.669557  
         C6        1.0000    0.43800   0.10910   0.20380   Biso      1.000     C          0.695711  
         C7        1.0000    0.59980   0.20350   0.20080   Biso      1.000     C          -0.17026  
         C8        1.0000    0.77440   0.33520   0.29630   Biso      1.000     C          0.245759  
         C9        1.0000    0.76310   0.39130   0.36620   Biso      1.000     C          -0.173273           
         C10       1.0000    0.01340   0.49180   0.26170   Biso      1.000     C          -0.195427           
         C11       1.0000    0.87860   0.49770   0.38600   Biso      1.000     C          -0.233519           
         C12       1.0000    0.00500   0.54780   0.33340   Biso      1.000     C          0.243675  
         C13       1.0000    0.12570   0.69880   0.42730   Biso      1.000     C          -0.16289  
         C14       1.0000    0.49150   0.40080   0.54370   Biso      1.000     C          -0.203351           
         C15       1.0000    0.27020   0.80600   0.44350   Biso      1.000     C          0.704555  
         C16       1.0000    0.12040   0.50250   0.94710   Biso      1.000     C          -0.17443  
         C17       1.0000    0.13000   0.60200   0.99080   Biso      1.000     C          0.23389200000000002           
         C18       1.0000    0.27370   0.80630   0.01310   Biso      1.000     C          -0.171474           
         C19       1.0000    0.15810   0.85990   0.97610   Biso      1.000     C          0.669557  
         C20       1.0000    0.06200   0.89090   0.70380   Biso      1.000     C          0.695711  
         C21       1.0000    0.90020   0.79650   0.70080   Biso      1.000     C          -0.17026  
         C22       1.0000    0.22980   0.19400   0.94350   Biso      1.000     C          0.704555  
         C23       1.0000    0.37430   0.30120   0.92730   Biso      1.000     C          -0.16289  
         C24       1.0000    0.49500   0.45220   0.83340   Biso      1.000     C          0.243673  
         C25       1.0000    0.62140   0.50230   0.88600   Biso      1.000     C          -0.233517           
         C26       1.0000    0.48660   0.50820   0.76170   Biso      1.000     C          -0.19542400000000001          
         C27       1.0000    0.73690   0.60870   0.86620   Biso      1.000     C          -0.173283           
         C28       1.0000    0.00850   0.59920   0.04370   Biso      1.000     C          -0.20335  
         C29       1.0000    0.77020   0.80600   0.05650   Biso      1.000     C          0.704555  
         C30       1.0000    0.62570   0.69880   0.07270   Biso      1.000     C          -0.16289  
         C31       1.0000    0.50500   0.54780   0.16660   Biso      1.000     C          0.243673  
         C32       1.0000    0.50850   0.59920   0.45630   Biso      1.000     C          -0.203348           
         C33       1.0000    0.62040   0.50250   0.55290   Biso      1.000     C          -0.174426           
         C34       1.0000    0.63000   0.60200   0.50920   Biso      1.000     C          0.233893  
         C35       1.0000    0.77370   0.80630   0.48690   Biso      1.000     C          -0.171474           
         C36       1.0000    0.65810   0.85990   0.52390   Biso      1.000     C          0.669557  
         C37       1.0000    0.56200   0.89090   0.79620   Biso      1.000     C          0.695711  
         C38       1.0000    0.40020   0.79650   0.79920   Biso      1.000     C          -0.17026  
         C39       1.0000    0.22560   0.66480   0.70370   Biso      1.000     C          0.245758  
         C40       1.0000    0.10230   0.61540   0.75760   Biso      1.000     C          -0.188737           
         C41       1.0000    0.23690   0.60870   0.63380   Biso      1.000     C          -0.173273           
         C42       1.0000    0.98660   0.50820   0.73830   Biso      1.000     C          -0.195427           
         C43       1.0000    0.12140   0.50230   0.61400   Biso      1.000     C          -0.233519           
         C44       1.0000    0.99500   0.45220   0.66660   Biso      1.000     C          0.243675  
         C45       1.0000    0.87430   0.30120   0.57270   Biso      1.000     C          -0.16289  
         C46       1.0000    0.72980   0.19400   0.55650   Biso      1.000     C          0.704555  
         C47       1.0000    0.99150   0.40080   0.95630   Biso      1.000     C          -0.203348           
         C48       1.0000    0.87960   0.49750   0.05290   Biso      1.000     C          -0.174426           
         C49       1.0000    0.87000   0.39800   0.00920   Biso      1.000     C          0.233893  
         C50       1.0000    0.72630   0.19370   0.98690   Biso      1.000     C          -0.171474           
         C51       1.0000    0.84190   0.14010   0.02390   Biso      1.000     C          0.669557  
         C52       1.0000    0.93800   0.10910   0.29620   Biso      1.000     C          0.695711  
         C53       1.0000    0.09980   0.20350   0.29920   Biso      1.000     C          -0.17026  
         C54       1.0000    0.27440   0.33520   0.20370   Biso      1.000     C          0.245758  
         C55       1.0000    0.39770   0.38460   0.25760   Biso      1.000     C          -0.188737           
         C56       1.0000    0.26310   0.39130   0.13380   Biso      1.000     C          -0.173273           
         C57       1.0000    0.51340   0.49180   0.23830   Biso      1.000     C          -0.19542400000000001          
         C58       1.0000    0.37860   0.49770   0.11400   Biso      1.000     C          -0.233519           
         C59       1.0000    0.60230   0.61540   0.74240   Biso      1.000     C          -0.18874000000000002          
         C60       1.0000    0.72560   0.66480   0.79630   Biso      1.000     C          0.24576900000000002           
         Dy1       1.0000    0.93315   0.95259   0.88221   Biso      1.000     Dy          2.0943970000000003  
         Dy2       1.0000    0.56685   0.04741   0.38221   Biso      1.000     Dy          2.0943970000000003  
         Dy3       1.0000    0.06685   0.04741   0.11779   Biso      1.000     Dy          2.0943970000000003  
         Dy4       1.0000    0.43315   0.95259   0.61779   Biso      1.000     Dy          2.0943970000000003  
         H1        1.0000    0.70140   0.50400   0.58870   Biso      1.000     H          0.130425  
         H2        1.0000    0.67280   0.17780   0.16830   Biso      1.000     H          0.13109500000000002           
         H3        1.0000    0.59080   0.27450   0.17710   Biso      1.000     H          0.127179  
         H4        1.0000    0.90330   0.34700   0.19420   Biso      1.000     H          0.137973  
         H5        1.0000    0.67780   0.35820   0.40090   Biso      1.000     H          0.12946   
         H6        1.0000    0.09670   0.52580   0.22610   Biso      1.000     H          0.12925799999999998           
         H7        1.0000    0.87140   0.53500   0.43400   Biso      1.000     H          0.11589   
         H8        1.0000    0.12220   0.63890   0.46690   Biso      1.000     H          0.11318299999999999           
         H9        1.0000    0.02990   0.71970   0.43360   Biso      1.000     H          0.118443  
         H10       1.0000    0.01350   0.66580   0.07310   Biso      1.000     H          0.12754100000000002           
         H11       1.0000    0.20140   0.50400   0.91130   Biso      1.000     H          0.130425  
         H12       1.0000    0.25100   0.79460   0.07020   Biso      1.000     H          0.117093  
         H13       1.0000    0.24900   0.20540   0.57020   Biso      1.000     H          0.117093  
         H14       1.0000    0.82720   0.82220   0.66830   Biso      1.000     H          0.13109500000000002           
         H15       1.0000    0.90920   0.72550   0.67710   Biso      1.000     H          0.127179  
         H16       1.0000    0.59670   0.65300   0.69420   Biso      1.000     H          0.137973  
         H17       1.0000    0.51350   0.66580   0.42690   Biso      1.000     H          0.12754000000000001           
         H18       1.0000    0.40330   0.47420   0.72610   Biso      1.000     H          0.12925799999999998           
         H19       1.0000    0.62860   0.46500   0.93400   Biso      1.000     H          0.11589   
         H20       1.0000    0.37780   0.36110   0.96690   Biso      1.000     H          0.11318299999999999           
         H21       1.0000    0.47010   0.28030   0.93360   Biso      1.000     H          0.118443  
         H22       1.0000    0.38120   0.86110   0.00750   Biso      1.000     H          0.146319  
         H23       1.0000    0.11880   0.13890   0.50750   Biso      1.000     H          0.146319  
         H24       1.0000    0.82220   0.64180   0.90090   Biso      1.000     H          0.12946   
         H25       1.0000    0.48650   0.33420   0.57310   Biso      1.000     H          0.12754100000000002           
         H26       1.0000    0.29860   0.49600   0.41130   Biso      1.000     H          0.130426  
         H27       1.0000    0.88120   0.86110   0.49250   Biso      1.000     H          0.14632   
         H28       1.0000    0.75100   0.79460   0.42980   Biso      1.000     H          0.117093  
         H29       1.0000    0.32720   0.82220   0.83170   Biso      1.000     H          0.13109500000000002           
         H30       1.0000    0.09670   0.65300   0.80580   Biso      1.000     H          0.137973  
         H31       1.0000    0.32220   0.64180   0.59910   Biso      1.000     H          0.12946   
         H32       1.0000    0.90330   0.47420   0.77390   Biso      1.000     H          0.12925799999999998           
         H33       1.0000    0.12860   0.46500   0.56600   Biso      1.000     H          0.11589   
         H34       1.0000    0.87780   0.36110   0.53310   Biso      1.000     H          0.11318299999999999           
         H35       1.0000    0.97010   0.28030   0.56640   Biso      1.000     H          0.118443  
         H36       1.0000    0.98650   0.33420   0.92690   Biso      1.000     H          0.12754000000000001           
         H37       1.0000    0.40920   0.72550   0.82290   Biso      1.000     H          0.127179  
         H38       1.0000    0.79860   0.49600   0.08870   Biso      1.000     H          0.130425  
         H39       1.0000    0.62220   0.63890   0.03310   Biso      1.000     H          0.11318299999999999           
         H40       1.0000    0.37140   0.53500   0.06600   Biso      1.000     H          0.11589   
         H41       1.0000    0.52990   0.71970   0.06640   Biso      1.000     H          0.118443  
         H42       1.0000    0.17780   0.35820   0.09910   Biso      1.000     H          0.12946   
         H43       1.0000    0.59670   0.52580   0.27390   Biso      1.000     H          0.12925799999999998           
         H44       1.0000    0.09080   0.27450   0.32290   Biso      1.000     H          0.127179  
         H45       1.0000    0.17280   0.17780   0.33170   Biso      1.000     H          0.13109500000000002           
         H46       1.0000    0.74900   0.20540   0.92980   Biso      1.000     H          0.117093  
         H47       1.0000    0.61880   0.13890   0.99250   Biso      1.000     H          0.14632   
         H48       1.0000    0.40330   0.34700   0.30580   Biso      1.000     H          0.137973  
         O1        1.0000    0.80240   0.81980   0.98279   Biso      1.000     O          -0.663378           
         O2        1.0000    0.62650   0.65170   0.15102   Biso      1.000     O          -0.19015  
         O3        1.0000    0.15810   0.22580   0.21741   Biso      1.000     O          -0.299482           
         O4        1.0000    0.85000   0.10020   0.35594   Biso      1.000     O          -0.67665  
         O5        1.0000    0.90450   0.04490   0.23500   Biso      1.000     O          -0.681773           
         O6        1.0000    0.90090   0.17210   0.09109   Biso      1.000     O          -0.6007520000000001           
         O7        1.0000    0.86870   0.05800   0.98670   Biso      1.000     O          -0.7664489999999999           
         O8        1.0000    0.34190   0.77420   0.71741   Biso      1.000     O          -0.299482           
         O9        1.0000    0.65930   0.12920   0.61347   Biso      1.000     O          -0.664582           
         O10       1.0000    0.69760   0.18020   0.48279   Biso      1.000     O          -0.6633789999999999           
         O11       1.0000    0.87350   0.34830   0.65102   Biso      1.000     O          -0.190151           
         O12       1.0000    0.59910   0.82790   0.59109   Biso      1.000     O          -0.6007520000000001           
         O13       1.0000    0.65000   0.89980   0.85594   Biso      1.000     O          -0.67665  
         O14       1.0000    0.59550   0.95510   0.73500   Biso      1.000     O          -0.681773           
         O15       1.0000    0.84070   0.87080   0.11347   Biso      1.000     O          -0.664583           
         O16       1.0000    0.73310   0.30190   0.02170   Biso      1.000     O          -0.194832           
         O17       1.0000    0.23310   0.30190   0.47830   Biso      1.000     O          -0.194832           
         O18       1.0000    0.09550   0.95510   0.76500   Biso      1.000     O          -0.681773           
         O19       1.0000    0.40090   0.17210   0.40891   Biso      1.000     O          -0.6007520000000001           
         O20       1.0000    0.63130   0.94200   0.48670   Biso      1.000     O          -0.7664489999999999           
         O21       1.0000    0.15930   0.12920   0.88653   Biso      1.000     O          -0.664582           
         O22       1.0000    0.19760   0.18020   0.01721   Biso      1.000     O          -0.663378           
         O23       1.0000    0.37350   0.34830   0.84898   Biso      1.000     O          -0.190151           
         O24       1.0000    0.84190   0.77420   0.78259   Biso      1.000     O          -0.299483           
         O25       1.0000    0.15000   0.89980   0.64406   Biso      1.000     O          -0.67665  
         O26       1.0000    0.09910   0.82790   0.90891   Biso      1.000     O          -0.6007520000000001           
         O27       1.0000    0.13130   0.94200   0.01330   Biso      1.000     O          -0.7664489999999999           
         O28       1.0000    0.26690   0.69810   0.97830   Biso      1.000     O          -0.194832           
         O29       1.0000    0.34070   0.87080   0.38653   Biso      1.000     O          -0.664582           
         O30       1.0000    0.30240   0.81980   0.51721   Biso      1.000     O          -0.6633789999999999           
         O31       1.0000    0.12650   0.65170   0.34898   Biso      1.000     O          -0.190151           
         O32       1.0000    0.65810   0.22580   0.28259   Biso      1.000     O          -0.299482           
         O33       1.0000    0.35000   0.10020   0.14406   Biso      1.000     O          -0.67665  
         O34       1.0000    0.40450   0.04490   0.26500   Biso      1.000     O          -0.681773           
         O35       1.0000    0.36870   0.05800   0.51330   Biso      1.000     O          -0.7664489999999999           
         O36       1.0000    0.76690   0.69810   0.52170   Biso      1.000     O          -0.194832 