
##########################################################################
#               Crystallographic Information Format file
#               Produced by PyCifRW module
#
#  This is a CIF file.  CIF has been adopted by the International
#  Union of Crystallography as the standard for data archiving and
#  transmission.
#
#  For information on this file format, follow the CIF links at
#  http://www.iucr.org
##########################################################################

data_image0

_cell_length_a                          10.221
_cell_length_b                          10.452
_cell_length_c                          15.248
_cell_angle_alpha                       105.766
_cell_angle_beta                        101.431
_cell_angle_gamma                       101.226
_symmetry_space_group_name_H-M          'P 1'
_symmetry_int_tables_number             1
loop_
  _symmetry_equiv_pos_as_xyz
         'x, y, z' 
loop_
  _atom_site_label
  _atom_site_occupancy
  _atom_site_fract_x
  _atom_site_fract_y
  _atom_site_fract_z
  _atom_site_thermal_displace_type
  _atom_site_B_iso_or_equiv
  _atom_site_type_symbol
  _atom_site_charge
         C1        1.0000    0.24190   0.45390   0.46730   Biso      1.000     C          0.181268  
         C2        1.0000    0.50010   0.20350   0.76560   Biso      1.000     C          0.669374  
         C3        1.0000    0.47680   0.33910   0.76330   Biso      1.000     C          -0.054575           
         C4        1.0000    0.35920   0.37280   0.78240   Biso      1.000     C          -0.15298699999999998          
         C5        1.0000    0.33670   0.50000   0.78760   Biso      1.000     C          0.09335   
         C6        1.0000    0.43860   0.60100   0.77950   Biso      1.000     C          -0.068315           
         C7        1.0000    0.55330   0.56780   0.75570   Biso      1.000     C          -0.118862           
         C8        1.0000    0.57250   0.43590   0.74360   Biso      1.000     C          0.178334  
         C9        1.0000    0.42600   0.74580   0.80100   Biso      1.000     C          0.678897  
         C10       1.0000    0.12580   0.24950   0.31860   Biso      1.000     C          0.682662  
         C11       1.0000    0.13780   0.38890   0.38340   Biso      1.000     C          -0.070369           
         C12       1.0000    0.03760   0.45550   0.35590   Biso      1.000     C          -0.157332           
         C13       1.0000    0.03980   0.58760   0.41180   Biso      1.000     C          0.065105  
         C14       1.0000    0.20760   0.81970   0.98520   Biso      1.000     C          0.627393  
         C15       1.0000    0.14340   0.64840   0.49620   Biso      1.000     C          -0.047598           
         C16       1.0000    0.56140   0.39900   0.22050   Biso      1.000     C          -0.06831799999999999          
         C17       1.0000    0.14220   0.78740   0.56200   Biso      1.000     C          0.5870310000000001  
         C18       1.0000    0.94550   0.77810   0.11690   Biso      1.000     C          0.671141  
         C19       1.0000    0.90100   0.62200   0.08660   Biso      1.000     C          -0.078927           
         C20       1.0000    0.99510   0.55560   0.12140   Biso      1.000     C          -0.150232           
         C21       1.0000    0.96230   0.41280   0.09960   Biso      1.000     C          0.086671  
         C22       1.0000    0.83370   0.33470   0.03830   Biso      1.000     C          -0.060980999999999994         
         C23       1.0000    0.74120   0.40000   0.00200   Biso      1.000     C          -0.1244   
         C24       1.0000    0.77170   0.54520   0.02630   Biso      1.000     C          0.163232  
         C25       1.0000    0.79240   0.18030   0.01480   Biso      1.000     C          0.627393  
         C26       1.0000    0.49990   0.79650   0.23440   Biso      1.000     C          0.669374  
         C27       1.0000    0.52320   0.66090   0.23670   Biso      1.000     C          -0.054575           
         C28       1.0000    0.24290   0.58520   0.52510   Biso      1.000     C          -0.135147           
         C29       1.0000    0.22830   0.45480   0.97370   Biso      1.000     C          0.163232  
         C30       1.0000    0.25880   0.60000   0.99800   Biso      1.000     C          -0.124401           
         C31       1.0000    0.16630   0.66530   0.96170   Biso      1.000     C          -0.06097999999999999          
         C32       1.0000    0.57400   0.25420   0.19900   Biso      1.000     C          0.678898  
         C33       1.0000    0.42750   0.56410   0.25640   Biso      1.000     C          0.178333  
         C34       1.0000    0.44670   0.43220   0.24430   Biso      1.000     C          -0.118861           
         C35       1.0000    0.64080   0.62720   0.21760   Biso      1.000     C          -0.15298699999999998          
         C36       1.0000    0.87420   0.75050   0.68140   Biso      1.000     C          0.682662  
         C37       1.0000    0.86220   0.61110   0.61660   Biso      1.000     C          -0.070369           
         C38       1.0000    0.96240   0.54450   0.64410   Biso      1.000     C          -0.157332           
         C39       1.0000    0.96020   0.41240   0.58820   Biso      1.000     C          0.065105  
         C40       1.0000    0.66330   0.50000   0.21240   Biso      1.000     C          0.09335299999999999           
         C41       1.0000    0.75710   0.41480   0.47490   Biso      1.000     C          -0.135152           
         C42       1.0000    0.75810   0.54610   0.53270   Biso      1.000     C          0.181268  
         C43       1.0000    0.85780   0.21260   0.43800   Biso      1.000     C          0.58703   
         C44       1.0000    0.03770   0.58720   0.90040   Biso      1.000     C          0.086671  
         C45       1.0000    0.05450   0.22190   0.88310   Biso      1.000     C          0.671141  
         C46       1.0000    0.00490   0.44440   0.87860   Biso      1.000     C          -0.150232           
         C47       1.0000    0.09900   0.37800   0.91340   Biso      1.000     C          -0.078927           
         C48       1.0000    0.85660   0.35160   0.50380   Biso      1.000     C          -0.047594           
         H1        1.0000    0.03140   0.58860   0.70040   Biso      1.000     H          0.127029  
         H2        1.0000    0.68990   0.37110   0.41770   Biso      1.000     H          0.134164  
         H3        1.0000    0.91800   0.39190   0.83970   Biso      1.000     H          0.13737   
         H4        1.0000    0.61980   0.63470   0.74740   Biso      1.000     H          0.122368  
         H5        1.0000    0.29270   0.30730   0.79200   Biso      1.000     H          0.120955  
         H6        1.0000    0.96860   0.41140   0.29960   Biso      1.000     H          0.127029  
         H7        1.0000    0.31010   0.62890   0.58230   Biso      1.000     H          0.134163  
         H8        1.0000    0.08200   0.60810   0.16030   Biso      1.000     H          0.13737   
         H9        1.0000    0.65640   0.34690   0.96040   Biso      1.000     H          0.136429  
         H10       1.0000    0.38020   0.36530   0.25260   Biso      1.000     H          0.122368  
         H11       1.0000    0.34360   0.65310   0.03960   Biso      1.000     H          0.136429  
         H12       1.0000    0.70730   0.69270   0.20800   Biso      1.000     H          0.120955  
         La1       1.0000    0.21969   0.96560   0.80494   Biso      1.000     La          2.0268040000000003  
         La2       1.0000    0.29030   0.00795   0.22241   Biso      1.000     La          2.056501  
         La3       1.0000    0.78031   0.03440   0.19506   Biso      1.000     La          2.0268040000000003  
         La4       1.0000    0.70970   0.99205   0.77759   Biso      1.000     La          2.056501  
         N1        1.0000    0.65540   0.60490   0.50340   Biso      1.000     N          -0.197196           
         N2        1.0000    0.33050   0.39870   0.00770   Biso      1.000     N          -0.185244           
         N3        1.0000    0.68020   0.40310   0.70900   Biso      1.000     N          -0.165998           
         N4        1.0000    0.34460   0.39510   0.49660   Biso      1.000     N          -0.197196           
         N5        1.0000    0.66950   0.60130   0.99230   Biso      1.000     N          -0.185244           
         N6        1.0000    0.31980   0.59690   0.29100   Biso      1.000     N          -0.165998           
         O1        1.0000    0.01170   0.18330   0.26050   Biso      1.000     O          -0.673151           
         O2        1.0000    0.23610   0.83950   0.64190   Biso      1.000     O          -0.698926           
         O3        1.0000    0.05270   0.84440   0.53680   Biso      1.000     O          -0.553165           
         O4        1.0000    0.85550   0.84160   0.10350   Biso      1.000     O          -0.6327470000000001           
         O5        1.0000    0.38730   0.82060   0.24630   Biso      1.000     O          -0.6285029999999999           
         O6        1.0000    0.69260   0.11150   0.94270   Biso      1.000     O          -0.658833           
         O7        1.0000    0.85760   0.12510   0.06620   Biso      1.000     O          -0.6276930000000001           
         O8        1.0000    0.58940   0.88020   0.21770   Biso      1.000     O          -0.674812           
         O9        1.0000    0.23050   0.20340   0.32400   Biso      1.000     O          -0.6641819999999999           
         O10       1.0000    0.07100   0.83700   0.15650   Biso      1.000     O          -0.6691060000000001           
         O11       1.0000    0.52720   0.83880   0.80540   Biso      1.000     O          -0.690175           
         O12       1.0000    0.14240   0.87490   0.93380   Biso      1.000     O          -0.6276930000000001           
         O13       1.0000    0.61270   0.17940   0.75370   Biso      1.000     O          -0.6285029999999999           
         O14       1.0000    0.41060   0.11980   0.78230   Biso      1.000     O          -0.674812           
         O15       1.0000    0.68350   0.22980   0.18400   Biso      1.000     O          -0.606622           
         O16       1.0000    0.30740   0.88850   0.05730   Biso      1.000     O          -0.658833           
         O17       1.0000    0.92900   0.16300   0.84350   Biso      1.000     O          -0.6691060000000001           
         O18       1.0000    0.14450   0.15840   0.89650   Biso      1.000     O          -0.6327470000000001           
         O19       1.0000    0.94730   0.15560   0.46320   Biso      1.000     O          -0.553165           
         O20       1.0000    0.76390   0.16050   0.35810   Biso      1.000     O          -0.698925           
         O21       1.0000    0.98830   0.81670   0.73950   Biso      1.000     O          -0.673151           
         O22       1.0000    0.76950   0.79660   0.67600   Biso      1.000     O          -0.6641819999999999           
         O23       1.0000    0.31650   0.77020   0.81600   Biso      1.000     O          -0.606622           
         O24       1.0000    0.47280   0.16120   0.19460   Biso      1.000     O          -0.690175 