
##########################################################################
#               Crystallographic Information Format file
#               Produced by PyCifRW module
#
#  This is a CIF file.  CIF has been adopted by the International
#  Union of Crystallography as the standard for data archiving and
#  transmission.
#
#  For information on this file format, follow the CIF links at
#  http://www.iucr.org
##########################################################################

data_image0

_cell_length_a                          10.0545
_cell_length_b                          15.2938
_cell_length_c                          20.4466
_cell_angle_alpha                       90
_cell_angle_beta                        90
_cell_angle_gamma                       90
_symmetry_space_group_name_H-M          'P 1'
_symmetry_int_tables_number             1
loop_
  _symmetry_equiv_pos_as_xyz
         'x, y, z' 
loop_
  _atom_site_label
  _atom_site_occupancy
  _atom_site_fract_x
  _atom_site_fract_y
  _atom_site_fract_z
  _atom_site_thermal_displace_type
  _atom_site_B_iso_or_equiv
  _atom_site_type_symbol
  _atom_site_charge
         Ag1       1.0000    0.39758   0.91127   0.58785   Biso      1.000     Ag          0.524345  
         Ag2       1.0000    0.82488   0.75000   0.03907   Biso      1.000     Ag          0.5911609999999999  
         Ag3       1.0000    0.84660   0.75000   0.84293   Biso      1.000     Ag          0.56968   
         Ag4       1.0000    0.29233   0.25000   0.44312   Biso      1.000     Ag          0.629689  
         Ag5       1.0000    0.67512   0.25000   0.53907   Biso      1.000     Ag          0.59116   
         Ag6       1.0000    0.65340   0.25000   0.34293   Biso      1.000     Ag          0.569682  
         Ag7       1.0000    0.79233   0.25000   0.05688   Biso      1.000     Ag          0.62969   
         Ag8       1.0000    0.17512   0.25000   0.96093   Biso      1.000     Ag          0.591162  
         Ag9       1.0000    0.15340   0.25000   0.15707   Biso      1.000     Ag          0.5696829999999999  
         Ag10      1.0000    0.70767   0.75000   0.55688   Biso      1.000     Ag          0.629689  
         Ag11      1.0000    0.32488   0.75000   0.46093   Biso      1.000     Ag          0.59116   
         Ag12      1.0000    0.34660   0.75000   0.65707   Biso      1.000     Ag          0.569681  
         Ag13      1.0000    0.94710   0.37012   0.97329   Biso      1.000     Ag          0.449528  
         Ag14      1.0000    0.10242   0.41127   0.08785   Biso      1.000     Ag          0.524381  
         Ag15      1.0000    0.20767   0.75000   0.94312   Biso      1.000     Ag          0.629691  
         Ag16      1.0000    0.39758   0.58873   0.58785   Biso      1.000     Ag          0.524379  
         Ag17      1.0000    0.55290   0.87012   0.47329   Biso      1.000     Ag          0.44950500000000004           
         Ag18      1.0000    0.10242   0.08873   0.08785   Biso      1.000     Ag          0.524347  
         Ag19      1.0000    0.94710   0.12988   0.97329   Biso      1.000     Ag          0.44950500000000004           
         Ag20      1.0000    0.55290   0.62988   0.47329   Biso      1.000     Ag          0.449528  
         Ag21      1.0000    0.44710   0.37012   0.52671   Biso      1.000     Ag          0.449506  
         Ag22      1.0000    0.60242   0.41127   0.41215   Biso      1.000     Ag          0.524345  
         Ag23      1.0000    0.05290   0.62988   0.02671   Biso      1.000     Ag          0.44950500000000004           
         Ag24      1.0000    0.60242   0.08873   0.41215   Biso      1.000     Ag          0.524379  
         Ag25      1.0000    0.44710   0.12988   0.52671   Biso      1.000     Ag          0.449529  
         Ag26      1.0000    0.89758   0.91127   0.91215   Biso      1.000     Ag          0.5243800000000001  
         Ag27      1.0000    0.05290   0.87012   0.02671   Biso      1.000     Ag          0.44952700000000007           
         Ag28      1.0000    0.89758   0.58873   0.91215   Biso      1.000     Ag          0.524347  
         C1        1.0000    0.33370   0.93260   0.01450   Biso      1.000     C          0.519478  
         C2        1.0000    0.65990   0.07250   0.62850   Biso      1.000     C          0.5120640000000001  
         C3        1.0000    0.73040   0.01100   0.67740   Biso      1.000     C          0.277188  
         C4        1.0000    0.65040   0.99110   0.73990   Biso      1.000     C          0.274645  
         C5        1.0000    0.84960   0.00890   0.23990   Biso      1.000     C          0.274645  
         C6        1.0000    0.03900   0.01360   0.53000   Biso      1.000     C          0.275107  
         C7        1.0000    0.16630   0.06740   0.51450   Biso      1.000     C          0.519479  
         C8        1.0000    0.84010   0.92750   0.12850   Biso      1.000     C          0.5120640000000001  
         C9        1.0000    0.76960   0.98900   0.17740   Biso      1.000     C          0.27718899999999996           
         C10       1.0000    0.46100   0.98640   0.03000   Biso      1.000     C          0.275109  
         C11       1.0000    0.96790   0.78970   0.94670   Biso      1.000     C          -0.49102299999999993          
         C12       1.0000    0.46790   0.71030   0.55330   Biso      1.000     C          -0.491022           
         C13       1.0000    0.03210   0.28970   0.05330   Biso      1.000     C          -0.49102299999999993          
         C14       1.0000    0.15040   0.50890   0.76010   Biso      1.000     C          0.274645  
         C15       1.0000    0.23040   0.48900   0.82260   Biso      1.000     C          0.27719   
         C16       1.0000    0.15990   0.42750   0.87150   Biso      1.000     C          0.5120640000000001  
         C17       1.0000    0.83370   0.56740   0.48550   Biso      1.000     C          0.519479  
         C18       1.0000    0.96100   0.51360   0.47000   Biso      1.000     C          0.275108  
         C19       1.0000    0.27080   0.43800   0.20810   Biso      1.000     C          0.506937  
         C20       1.0000    0.34960   0.49110   0.26010   Biso      1.000     C          0.27464299999999997           
         C21       1.0000    0.26960   0.51100   0.32260   Biso      1.000     C          0.27718899999999996           
         C22       1.0000    0.34010   0.57250   0.37150   Biso      1.000     C          0.5120640000000001  
         C23       1.0000    0.66630   0.43260   0.98550   Biso      1.000     C          0.519478  
         C24       1.0000    0.53900   0.48640   0.97000   Biso      1.000     C          0.275109  
         C25       1.0000    0.77080   0.06200   0.29190   Biso      1.000     C          0.506935  
         C26       1.0000    0.22920   0.56200   0.70810   Biso      1.000     C          0.506935  
         C27       1.0000    0.53210   0.21030   0.44670   Biso      1.000     C          -0.491022           
         C28       1.0000    0.72920   0.93800   0.79190   Biso      1.000     C          0.506935  
         C29       1.0000    0.33370   0.56740   0.01450   Biso      1.000     C          0.519479  
         C30       1.0000    0.46100   0.51360   0.03000   Biso      1.000     C          0.27510999999999997           
         C31       1.0000    0.46790   0.78970   0.55330   Biso      1.000     C          -0.490724           
         C32       1.0000    0.22920   0.93800   0.70810   Biso      1.000     C          0.506934  
         C33       1.0000    0.15040   0.99110   0.76010   Biso      1.000     C          0.274644  
         C34       1.0000    0.15990   0.07250   0.87150   Biso      1.000     C          0.5120640000000001  
         C35       1.0000    0.83370   0.93260   0.48550   Biso      1.000     C          0.51948   
         C36       1.0000    0.96100   0.98640   0.47000   Biso      1.000     C          0.275108  
         C37       1.0000    0.03210   0.21030   0.05330   Biso      1.000     C          -0.490725           
         C38       1.0000    0.27080   0.06200   0.20810   Biso      1.000     C          0.506938  
         C39       1.0000    0.34960   0.00890   0.26010   Biso      1.000     C          0.27464299999999997           
         C40       1.0000    0.26960   0.98900   0.32260   Biso      1.000     C          0.277188  
         C41       1.0000    0.34010   0.92750   0.37150   Biso      1.000     C          0.5120640000000001  
         C42       1.0000    0.66630   0.06740   0.98550   Biso      1.000     C          0.519479  
         C43       1.0000    0.23040   0.01100   0.82260   Biso      1.000     C          0.27719   
         C44       1.0000    0.53210   0.28970   0.44670   Biso      1.000     C          -0.490725           
         C45       1.0000    0.53900   0.01360   0.97000   Biso      1.000     C          0.275109  
         C46       1.0000    0.73040   0.48900   0.67740   Biso      1.000     C          0.277188  
         C47       1.0000    0.65990   0.42750   0.62850   Biso      1.000     C          0.512065  
         C48       1.0000    0.72920   0.56200   0.79190   Biso      1.000     C          0.506935  
         C49       1.0000    0.96790   0.71030   0.94670   Biso      1.000     C          -0.490724           
         C50       1.0000    0.03900   0.48640   0.53000   Biso      1.000     C          0.275107  
         C51       1.0000    0.65040   0.50890   0.73990   Biso      1.000     C          0.274644  
         C52       1.0000    0.84010   0.57250   0.12850   Biso      1.000     C          0.5120640000000001  
         C53       1.0000    0.76960   0.51100   0.17740   Biso      1.000     C          0.27718899999999996           
         C54       1.0000    0.84960   0.49110   0.23990   Biso      1.000     C          0.274645  
         C55       1.0000    0.77080   0.43800   0.29190   Biso      1.000     C          0.506935  
         C56       1.0000    0.16630   0.43260   0.51450   Biso      1.000     C          0.519479  
         F1        1.0000    0.75890   0.56520   0.64750   Biso      1.000     F          -0.166251           
         F2        1.0000    0.84570   0.45420   0.69700   Biso      1.000     F          -0.140128           
         F3        1.0000    0.53930   0.55410   0.72320   Biso      1.000     F          -0.1671   
         F4        1.0000    0.60990   0.43150   0.76407   Biso      1.000     F          -0.127112           
         F5        1.0000    0.95050   0.43810   0.56640   Biso      1.000     F          -0.162873           
         F6        1.0000    0.06290   0.55860   0.56600   Biso      1.000     F          -0.148535           
         F7        1.0000    0.74110   0.43480   0.14750   Biso      1.000     F          -0.166252           
         F8        1.0000    0.65430   0.54580   0.19700   Biso      1.000     F          -0.140129           
         F9        1.0000    0.96070   0.44590   0.22320   Biso      1.000     F          -0.167101           
         F10       1.0000    0.89010   0.56850   0.26407   Biso      1.000     F          -0.127112           
         F11       1.0000    0.46070   0.05410   0.27680   Biso      1.000     F          -0.167101           
         F12       1.0000    0.56290   0.94140   0.93400   Biso      1.000     F          -0.148536           
         F13       1.0000    0.24110   0.06520   0.35250   Biso      1.000     F          -0.166251           
         F14       1.0000    0.15430   0.95420   0.30300   Biso      1.000     F          -0.140128           
         F15       1.0000    0.39010   0.93150   0.23593   Biso      1.000     F          -0.127112           
         F16       1.0000    0.04950   0.93810   0.43360   Biso      1.000     F          -0.162873           
         F17       1.0000    0.93710   0.05860   0.43400   Biso      1.000     F          -0.148536           
         F18       1.0000    0.25890   0.93480   0.85250   Biso      1.000     F          -0.166252           
         F19       1.0000    0.43710   0.44140   0.06600   Biso      1.000     F          -0.148536           
         F20       1.0000    0.34570   0.04580   0.80300   Biso      1.000     F          -0.14013  
         F21       1.0000    0.45050   0.06190   0.93360   Biso      1.000     F          -0.162874           
         F22       1.0000    0.54950   0.56190   0.06640   Biso      1.000     F          -0.162875           
         F23       1.0000    0.03930   0.55410   0.77680   Biso      1.000     F          -0.1671   
         F24       1.0000    0.96070   0.05410   0.22320   Biso      1.000     F          -0.1671   
         F25       1.0000    0.03930   0.94590   0.77680   Biso      1.000     F          -0.167101           
         F26       1.0000    0.24110   0.43480   0.35250   Biso      1.000     F          -0.166252           
         F27       1.0000    0.15430   0.54580   0.30300   Biso      1.000     F          -0.140128           
         F28       1.0000    0.46070   0.44590   0.27680   Biso      1.000     F          -0.1671   
         F29       1.0000    0.39010   0.56850   0.23593   Biso      1.000     F          -0.127112           
         F30       1.0000    0.04950   0.56190   0.43360   Biso      1.000     F          -0.162873           
         F31       1.0000    0.93710   0.44140   0.43400   Biso      1.000     F          -0.148535           
         F32       1.0000    0.25890   0.56520   0.85250   Biso      1.000     F          -0.16625299999999998          
         F33       1.0000    0.34570   0.45420   0.80300   Biso      1.000     F          -0.14013  
         F34       1.0000    0.89010   0.93150   0.26407   Biso      1.000     F          -0.127112           
         F35       1.0000    0.10990   0.43150   0.73593   Biso      1.000     F          -0.127113           
         F36       1.0000    0.43710   0.05860   0.06600   Biso      1.000     F          -0.148536           
         F37       1.0000    0.75890   0.93480   0.64750   Biso      1.000     F          -0.166252           
         F38       1.0000    0.84570   0.04580   0.69700   Biso      1.000     F          -0.140128           
         F39       1.0000    0.53930   0.94590   0.72320   Biso      1.000     F          -0.1671   
         F40       1.0000    0.60990   0.06850   0.76407   Biso      1.000     F          -0.127112           
         F41       1.0000    0.95050   0.06190   0.56640   Biso      1.000     F          -0.162873           
         F42       1.0000    0.06290   0.94140   0.56600   Biso      1.000     F          -0.148535           
         F43       1.0000    0.74110   0.06520   0.14750   Biso      1.000     F          -0.166252           
         F44       1.0000    0.65430   0.95420   0.19700   Biso      1.000     F          -0.140129           
         F45       1.0000    0.54950   0.93810   0.06640   Biso      1.000     F          -0.162874           
         F46       1.0000    0.10990   0.06850   0.73593   Biso      1.000     F          -0.127112           
         F47       1.0000    0.45050   0.43810   0.93360   Biso      1.000     F          -0.162874           
         F48       1.0000    0.56290   0.55860   0.93400   Biso      1.000     F          -0.148536           
         O1        1.0000    0.64520   0.35310   0.99760   Biso      1.000     O          -0.48471899999999996          
         O2        1.0000    0.56150   0.45910   0.60010   Biso      1.000     O          -0.498337           
         O3        1.0000    0.73130   0.64190   0.78310   Biso      1.000     O          -0.470875           
         O4        1.0000    0.78080   0.51870   0.83600   Biso      1.000     O          -0.45993199999999995          
         O5        1.0000    0.14520   0.35310   0.50240   Biso      1.000     O          -0.484721           
         O6        1.0000    0.27160   0.47210   0.51810   Biso      1.000     O          -0.481774           
         O7        1.0000    0.79300   0.64730   0.12380   Biso      1.000     O          -0.43604899999999996          
         O8        1.0000    0.93850   0.54090   0.10010   Biso      1.000     O          -0.498338           
         O9        1.0000    0.76870   0.35810   0.28310   Biso      1.000     O          -0.470875           
         O10       1.0000    0.71920   0.48130   0.33600   Biso      1.000     O          -0.45993100000000003          
         O11       1.0000    0.64520   0.14690   0.99760   Biso      1.000     O          -0.48471800000000004          
         O12       1.0000    0.77160   0.02790   0.98190   Biso      1.000     O          -0.481774           
         O13       1.0000    0.29300   0.85270   0.37620   Biso      1.000     O          -0.436051           
         O14       1.0000    0.43850   0.95910   0.39990   Biso      1.000     O          -0.49833599999999995          
         O15       1.0000    0.26870   0.14190   0.21690   Biso      1.000     O          -0.47087700000000005          
         O16       1.0000    0.21920   0.01870   0.16400   Biso      1.000     O          -0.45993100000000003          
         O17       1.0000    0.72840   0.97210   0.48190   Biso      1.000     O          -0.481774           
         O18       1.0000    0.20700   0.14730   0.87620   Biso      1.000     O          -0.43605  
         O19       1.0000    0.06150   0.04090   0.89990   Biso      1.000     O          -0.498338           
         O20       1.0000    0.23130   0.85810   0.71690   Biso      1.000     O          -0.470875           
         O21       1.0000    0.28080   0.98130   0.66400   Biso      1.000     O          -0.459929           
         O22       1.0000    0.70700   0.35270   0.62380   Biso      1.000     O          -0.43605  
         O23       1.0000    0.77160   0.47210   0.98190   Biso      1.000     O          -0.481774           
         O24       1.0000    0.22840   0.52790   0.01810   Biso      1.000     O          -0.481774           
         O25       1.0000    0.71920   0.01870   0.33600   Biso      1.000     O          -0.459934           
         O26       1.0000    0.29300   0.64730   0.37620   Biso      1.000     O          -0.43605200000000005          
         O27       1.0000    0.43850   0.54090   0.39990   Biso      1.000     O          -0.49833599999999995          
         O28       1.0000    0.26870   0.35810   0.21690   Biso      1.000     O          -0.47087700000000005          
         O29       1.0000    0.21920   0.48130   0.16400   Biso      1.000     O          -0.45993500000000004          
         O30       1.0000    0.85480   0.64690   0.49760   Biso      1.000     O          -0.48472200000000004          
         O31       1.0000    0.72840   0.52790   0.48190   Biso      1.000     O          -0.48177299999999995          
         O32       1.0000    0.20700   0.35270   0.87620   Biso      1.000     O          -0.43605  
         O33       1.0000    0.06150   0.45910   0.89990   Biso      1.000     O          -0.498338           
         O34       1.0000    0.23130   0.64190   0.71690   Biso      1.000     O          -0.470875           
         O35       1.0000    0.28080   0.51870   0.66400   Biso      1.000     O          -0.459933           
         O36       1.0000    0.35480   0.85310   0.00240   Biso      1.000     O          -0.48471899999999996          
         O37       1.0000    0.22840   0.97210   0.01810   Biso      1.000     O          -0.48177299999999995          
         O38       1.0000    0.70700   0.14730   0.62380   Biso      1.000     O          -0.43605  
         O39       1.0000    0.56150   0.04090   0.60010   Biso      1.000     O          -0.498337           
         O40       1.0000    0.73130   0.85810   0.78310   Biso      1.000     O          -0.470876           
         O41       1.0000    0.78080   0.98130   0.83600   Biso      1.000     O          -0.459937           
         O42       1.0000    0.14520   0.14690   0.50240   Biso      1.000     O          -0.484721           
         O43       1.0000    0.27160   0.02790   0.51810   Biso      1.000     O          -0.481774           
         O44       1.0000    0.79300   0.85270   0.12380   Biso      1.000     O          -0.43604899999999996          
         O45       1.0000    0.93850   0.95910   0.10010   Biso      1.000     O          -0.498337           
         O46       1.0000    0.76870   0.14190   0.28310   Biso      1.000     O          -0.470875           
         O47       1.0000    0.35480   0.64690   0.00240   Biso      1.000     O          -0.48471800000000004          
         O48       1.0000    0.85480   0.85310   0.49760   Biso      1.000     O          -0.484721 