
##########################################################################
#               Crystallographic Information Format file
#               Produced by PyCifRW module
#
#  This is a CIF file.  CIF has been adopted by the International
#  Union of Crystallography as the standard for data archiving and
#  transmission.
#
#  For information on this file format, follow the CIF links at
#  http://www.iucr.org
##########################################################################

data_image0

_cell_length_a                          10.5569
_cell_length_b                          14.8459
_cell_length_c                          19.0663
_cell_angle_alpha                       90
_cell_angle_beta                        90
_cell_angle_gamma                       90
_symmetry_space_group_name_H-M          'P 1'
_symmetry_int_tables_number             1
loop_
  _symmetry_equiv_pos_as_xyz
         'x, y, z' 
loop_
  _atom_site_label
  _atom_site_occupancy
  _atom_site_fract_x
  _atom_site_fract_y
  _atom_site_fract_z
  _atom_site_thermal_displace_type
  _atom_site_B_iso_or_equiv
  _atom_site_type_symbol
  _atom_site_charge
         Ag1       1.0000    0.64884   0.14975   0.35239   Biso      1.000     Ag          0.489976  
         Ag2       1.0000    0.48007   0.50000   0.50289   Biso      1.000     Ag          0.650813  
         Ag3       1.0000    0.91326   0.50000   0.41582   Biso      1.000     Ag          0.557687  
         Ag4       1.0000    0.96611   0.50000   0.58398   Biso      1.000     Ag          0.434016  
         Ag5       1.0000    0.13057   0.50000   0.75131   Biso      1.000     Ag          0.587536  
         Ag6       1.0000    0.41043   0.50000   0.95139   Biso      1.000     Ag          0.593016  
         Ag7       1.0000    0.43213   0.50000   0.76558   Biso      1.000     Ag          0.440647  
         Ag8       1.0000    0.51993   0.00000   0.00289   Biso      1.000     Ag          0.650813  
         Ag9       1.0000    0.31139   0.00000   0.13732   Biso      1.000     Ag          0.541003  
         Ag10      1.0000    0.08674   0.00000   0.91582   Biso      1.000     Ag          0.557685  
         Ag11      1.0000    0.03389   0.00000   0.08398   Biso      1.000     Ag          0.434016  
         Ag12      1.0000    0.86943   0.00000   0.25131   Biso      1.000     Ag          0.587531  
         Ag13      1.0000    0.58957   0.00000   0.45139   Biso      1.000     Ag          0.593015  
         Ag14      1.0000    0.56787   0.00000   0.26558   Biso      1.000     Ag          0.44063199999999997           
         Ag15      1.0000    0.35584   0.11109   0.91752   Biso      1.000     Ag          0.484207  
         Ag16      1.0000    0.68861   0.50000   0.63732   Biso      1.000     Ag          0.5410050000000001  
         Ag17      1.0000    0.87268   0.89756   0.45174   Biso      1.000     Ag          0.550788  
         Ag18      1.0000    0.87268   0.10244   0.45174   Biso      1.000     Ag          0.55079   
         Ag19      1.0000    0.14740   0.84965   0.01560   Biso      1.000     Ag          0.500121  
         Ag20      1.0000    0.35584   0.88891   0.91752   Biso      1.000     Ag          0.484207  
         Ag21      1.0000    0.35116   0.35025   0.85239   Biso      1.000     Ag          0.489982  
         Ag22      1.0000    0.14740   0.15035   0.01560   Biso      1.000     Ag          0.500121  
         Ag23      1.0000    0.85260   0.65035   0.51560   Biso      1.000     Ag          0.500121  
         Ag24      1.0000    0.12732   0.39756   0.95174   Biso      1.000     Ag          0.550776  
         Ag25      1.0000    0.35116   0.64975   0.85239   Biso      1.000     Ag          0.489982  
         Ag26      1.0000    0.12732   0.60244   0.95174   Biso      1.000     Ag          0.5507770000000001  
         Ag27      1.0000    0.85260   0.34965   0.51560   Biso      1.000     Ag          0.500121  
         Ag28      1.0000    0.64416   0.38891   0.41752   Biso      1.000     Ag          0.484207  
         Ag29      1.0000    0.64884   0.85025   0.35239   Biso      1.000     Ag          0.489976  
         Ag30      1.0000    0.64416   0.61109   0.41752   Biso      1.000     Ag          0.48420799999999997           
         C1        1.0000    0.44200   0.17970   0.22190   Biso      1.000     C          0.5097520000000001  
         C2        1.0000    0.85010   0.67550   0.31290   Biso      1.000     C          0.517976  
         C3        1.0000    0.91730   0.74060   0.26080   Biso      1.000     C          0.267961  
         C4        1.0000    0.85030   0.75860   0.19070   Biso      1.000     C          0.279967  
         C5        1.0000    0.58400   0.24460   0.60170   Biso      1.000     C          0.279567  
         C6        1.0000    0.79760   0.75890   0.90590   Biso      1.000     C          0.278118  
         C7        1.0000    0.70000   0.74060   0.96290   Biso      1.000     C          0.278833  
         C8        1.0000    0.57970   0.69060   0.94010   Biso      1.000     C          0.502546  
         C9        1.0000    0.65810   0.18050   0.55460   Biso      1.000     C          0.49533299999999997           
         C10       1.0000    0.35400   0.23780   0.17270   Biso      1.000     C          0.263436  
         C11       1.0000    0.92200   0.82120   0.14070   Biso      1.000     C          0.493667  
         C12       1.0000    0.41600   0.25540   0.10170   Biso      1.000     C          0.279568  
         C13       1.0000    0.79800   0.00000   0.38340   Biso      1.000     C          -0.489753           
         C14       1.0000    0.42030   0.80940   0.44010   Biso      1.000     C          0.502546  
         C15       1.0000    0.30000   0.75940   0.46290   Biso      1.000     C          0.278833  
         C16       1.0000    0.20240   0.74110   0.40590   Biso      1.000     C          0.27812   
         C17       1.0000    0.08080   0.69270   0.43250   Biso      1.000     C          0.5094569999999999  
         C18       1.0000    0.72200   0.00000   0.33600   Biso      1.000     C          -0.49825200000000003          
         C19       1.0000    0.21050   0.00000   0.02710   Biso      1.000     C          -0.472344           
         C20       1.0000    0.31180   0.00000   0.99620   Biso      1.000     C          -0.48863999999999996          
         C21       1.0000    0.27800   0.50000   0.83600   Biso      1.000     C          -0.498404           
         C22       1.0000    0.20200   0.50000   0.88340   Biso      1.000     C          -0.489608           
         C23       1.0000    0.78950   0.50000   0.52710   Biso      1.000     C          -0.47234499999999996          
         C24       1.0000    0.68820   0.50000   0.49620   Biso      1.000     C          -0.48863999999999996          
         C25       1.0000    0.64600   0.26220   0.67270   Biso      1.000     C          0.263437  
         C26       1.0000    0.34190   0.31950   0.05460   Biso      1.000     C          0.495331  
         C27       1.0000    0.55800   0.32030   0.72190   Biso      1.000     C          0.5097520000000001  
         C28       1.0000    0.91920   0.80730   0.93250   Biso      1.000     C          0.5094569999999999  
         C29       1.0000    0.08270   0.75940   0.76080   Biso      1.000     C          0.267961  
         C30       1.0000    0.14990   0.82450   0.81290   Biso      1.000     C          0.517976  
         C31       1.0000    0.92200   0.17880   0.14070   Biso      1.000     C          0.493667  
         C32       1.0000    0.85030   0.24140   0.19070   Biso      1.000     C          0.279967  
         C33       1.0000    0.91730   0.25940   0.26080   Biso      1.000     C          0.267961  
         C34       1.0000    0.44200   0.82030   0.22190   Biso      1.000     C          0.5097520000000001  
         C35       1.0000    0.35400   0.76220   0.17270   Biso      1.000     C          0.263436  
         C36       1.0000    0.41600   0.74460   0.10170   Biso      1.000     C          0.279568  
         C37       1.0000    0.34190   0.68050   0.05460   Biso      1.000     C          0.495331  
         C38       1.0000    0.42030   0.19060   0.44010   Biso      1.000     C          0.5025470000000001  
         C39       1.0000    0.30000   0.24060   0.46290   Biso      1.000     C          0.278833  
         C40       1.0000    0.20240   0.25890   0.40590   Biso      1.000     C          0.27812   
         C41       1.0000    0.08080   0.30730   0.43250   Biso      1.000     C          0.5094569999999999  
         C42       1.0000    0.07800   0.32120   0.64070   Biso      1.000     C          0.493667  
         C43       1.0000    0.85010   0.32450   0.31290   Biso      1.000     C          0.517976  
         C44       1.0000    0.08270   0.24060   0.76080   Biso      1.000     C          0.267961  
         C45       1.0000    0.14970   0.25860   0.69070   Biso      1.000     C          0.279967  
         C46       1.0000    0.07800   0.67880   0.64070   Biso      1.000     C          0.493667  
         C47       1.0000    0.14970   0.74140   0.69070   Biso      1.000     C          0.279967  
         C48       1.0000    0.79760   0.24110   0.90590   Biso      1.000     C          0.278118  
         C49       1.0000    0.70000   0.25940   0.96290   Biso      1.000     C          0.278833  
         C50       1.0000    0.57970   0.30940   0.94010   Biso      1.000     C          0.5025470000000001  
         C51       1.0000    0.91920   0.19270   0.93250   Biso      1.000     C          0.5094569999999999  
         C52       1.0000    0.65810   0.81950   0.55460   Biso      1.000     C          0.49533299999999997           
         C53       1.0000    0.58400   0.75540   0.60170   Biso      1.000     C          0.279567  
         C54       1.0000    0.64600   0.73780   0.67270   Biso      1.000     C          0.263437  
         C55       1.0000    0.55800   0.67970   0.72190   Biso      1.000     C          0.5097520000000001  
         C56       1.0000    0.14990   0.17550   0.81290   Biso      1.000     C          0.517976  
         F1        1.0000    0.66970   0.18050   0.99490   Biso      1.000     F          -0.17940899999999999          
         F2        1.0000    0.57120   0.67570   0.56860   Biso      1.000     F          -0.194634           
         F3        1.0000    0.46550   0.78810   0.61330   Biso      1.000     F          -0.13339  
         F4        1.0000    0.75960   0.69640   0.66300   Biso      1.000     F          -0.161414           
         F5        1.0000    0.66910   0.81910   0.70350   Biso      1.000     F          -0.13259  
         F6        1.0000    0.06400   0.32370   0.79330   Biso      1.000     F          -0.20516500000000001          
         F7        1.0000    0.96550   0.21200   0.74470   Biso      1.000     F          -0.129245           
         F8        1.0000    0.26410   0.29650   0.70670   Biso      1.000     F          -0.181922           
         F9        1.0000    0.76060   0.30880   0.01440   Biso      1.000     F          -0.16128599999999998          
         F10       1.0000    0.17480   0.17850   0.66250   Biso      1.000     F          -0.117644           
         F11       1.0000    0.42880   0.82430   0.06860   Biso      1.000     F          -0.194635           
         F12       1.0000    0.17440   0.18070   0.37560   Biso      1.000     F          -0.145424           
         F13       1.0000    0.23940   0.19120   0.51440   Biso      1.000     F          -0.16128599999999998          
         F14       1.0000    0.33030   0.31950   0.49490   Biso      1.000     F          -0.17940899999999999          
         F15       1.0000    0.53450   0.71190   0.11330   Biso      1.000     F          -0.133391           
         F16       1.0000    0.24040   0.80360   0.16300   Biso      1.000     F          -0.161415           
         F17       1.0000    0.33090   0.68090   0.20350   Biso      1.000     F          -0.13259  
         F18       1.0000    0.93600   0.17630   0.29330   Biso      1.000     F          -0.20516500000000001          
         F19       1.0000    0.82560   0.31930   0.87560   Biso      1.000     F          -0.145423           
         F20       1.0000    0.03450   0.28800   0.24470   Biso      1.000     F          -0.129245           
         F21       1.0000    0.26110   0.31100   0.35780   Biso      1.000     F          -0.15264  
         F22       1.0000    0.73890   0.18900   0.85780   Biso      1.000     F          -0.15264  
         F23       1.0000    0.73590   0.79650   0.20670   Biso      1.000     F          -0.181923           
         F24       1.0000    0.26410   0.70350   0.70670   Biso      1.000     F          -0.181922           
         F25       1.0000    0.73590   0.20350   0.20670   Biso      1.000     F          -0.181923           
         F26       1.0000    0.23940   0.80880   0.51440   Biso      1.000     F          -0.16128599999999998          
         F27       1.0000    0.33030   0.68050   0.49490   Biso      1.000     F          -0.17940899999999999          
         F28       1.0000    0.42880   0.17570   0.06860   Biso      1.000     F          -0.194635           
         F29       1.0000    0.53450   0.28810   0.11330   Biso      1.000     F          -0.133391           
         F30       1.0000    0.24040   0.19640   0.16300   Biso      1.000     F          -0.161414           
         F31       1.0000    0.33090   0.31910   0.20350   Biso      1.000     F          -0.13259  
         F32       1.0000    0.93600   0.82370   0.29330   Biso      1.000     F          -0.20516500000000001          
         F33       1.0000    0.03450   0.71200   0.24470   Biso      1.000     F          -0.129245           
         F34       1.0000    0.17480   0.82150   0.66250   Biso      1.000     F          -0.117645           
         F35       1.0000    0.82520   0.67850   0.16250   Biso      1.000     F          -0.117645           
         F36       1.0000    0.82560   0.68070   0.87560   Biso      1.000     F          -0.145423           
         F37       1.0000    0.76060   0.69120   0.01440   Biso      1.000     F          -0.16128599999999998          
         F38       1.0000    0.66970   0.81950   0.99490   Biso      1.000     F          -0.17940899999999999          
         F39       1.0000    0.57120   0.32430   0.56860   Biso      1.000     F          -0.194634           
         F40       1.0000    0.46550   0.21190   0.61330   Biso      1.000     F          -0.133391           
         F41       1.0000    0.75960   0.30360   0.66300   Biso      1.000     F          -0.161414           
         F42       1.0000    0.66910   0.18090   0.70350   Biso      1.000     F          -0.13259  
         F43       1.0000    0.06400   0.67630   0.79330   Biso      1.000     F          -0.20516500000000001          
         F44       1.0000    0.96550   0.78800   0.74470   Biso      1.000     F          -0.129245           
         F45       1.0000    0.73890   0.81100   0.85780   Biso      1.000     F          -0.15264  
         F46       1.0000    0.82520   0.32150   0.16250   Biso      1.000     F          -0.117645           
         F47       1.0000    0.26110   0.68900   0.35780   Biso      1.000     F          -0.15264  
         F48       1.0000    0.17440   0.81930   0.37560   Biso      1.000     F          -0.145424           
         O1        1.0000    0.98570   0.73960   0.44090   Biso      1.000     O          -0.488915           
         O2        1.0000    0.48450   0.26040   0.92600   Biso      1.000     O          -0.506566           
         O3        1.0000    0.62070   0.90000   0.55490   Biso      1.000     O          -0.43982  
         O4        1.0000    0.74730   0.78930   0.52040   Biso      1.000     O          -0.48302  
         O5        1.0000    0.50900   0.71640   0.77300   Biso      1.000     O          -0.453687           
         O6        1.0000    0.55070   0.59960   0.70290   Biso      1.000     O          -0.5078199999999999           
         O7        1.0000    0.10770   0.09940   0.81720   Biso      1.000     O          -0.445564           
         O8        1.0000    0.24300   0.20860   0.84480   Biso      1.000     O          -0.48852700000000004          
         O9        1.0000    0.00370   0.28460   0.59890   Biso      1.000     O          -0.467658           
         O10       1.0000    0.10100   0.40580   0.64470   Biso      1.000     O          -0.505003           
         O11       1.0000    0.98570   0.26040   0.44090   Biso      1.000     O          -0.488915           
         O12       1.0000    0.09350   0.38860   0.44500   Biso      1.000     O          -0.49768100000000004          
         O13       1.0000    0.41280   0.10810   0.43480   Biso      1.000     O          -0.45053999999999994          
         O14       1.0000    0.51550   0.23960   0.42600   Biso      1.000     O          -0.5065649999999999           
         O15       1.0000    0.37930   0.60000   0.05490   Biso      1.000     O          -0.439817           
         O16       1.0000    0.25270   0.71070   0.02040   Biso      1.000     O          -0.48302  
         O17       1.0000    0.49100   0.78360   0.27300   Biso      1.000     O          -0.453686           
         O18       1.0000    0.89230   0.40060   0.31720   Biso      1.000     O          -0.445562           
         O19       1.0000    0.75700   0.29140   0.34480   Biso      1.000     O          -0.48852700000000004          
         O20       1.0000    0.99630   0.21540   0.09890   Biso      1.000     O          -0.467658           
         O21       1.0000    0.89900   0.09420   0.14470   Biso      1.000     O          -0.505003           
         O22       1.0000    0.58720   0.39190   0.93480   Biso      1.000     O          -0.450539           
         O23       1.0000    0.09350   0.61140   0.44500   Biso      1.000     O          -0.49768100000000004          
         O24       1.0000    0.90650   0.11140   0.94500   Biso      1.000     O          -0.49768100000000004          
         O25       1.0000    0.10100   0.59420   0.64470   Biso      1.000     O          -0.505003           
         O26       1.0000    0.41280   0.89190   0.43480   Biso      1.000     O          -0.450539           
         O27       1.0000    0.51550   0.76040   0.42600   Biso      1.000     O          -0.5065649999999999           
         O28       1.0000    0.37930   0.40000   0.05490   Biso      1.000     O          -0.43981899999999996          
         O29       1.0000    0.25270   0.28930   0.02040   Biso      1.000     O          -0.48302  
         O30       1.0000    0.49100   0.21640   0.27300   Biso      1.000     O          -0.453686           
         O31       1.0000    0.44930   0.09960   0.20290   Biso      1.000     O          -0.5078189999999999           
         O32       1.0000    0.89230   0.59940   0.31720   Biso      1.000     O          -0.445564           
         O33       1.0000    0.75700   0.70860   0.34480   Biso      1.000     O          -0.48852799999999996          
         O34       1.0000    0.99630   0.78460   0.09890   Biso      1.000     O          -0.467658           
         O35       1.0000    0.89900   0.90580   0.14470   Biso      1.000     O          -0.505003           
         O36       1.0000    0.01430   0.76040   0.94090   Biso      1.000     O          -0.488912           
         O37       1.0000    0.90650   0.88860   0.94500   Biso      1.000     O          -0.49768100000000004          
         O38       1.0000    0.58720   0.60810   0.93480   Biso      1.000     O          -0.450538           
         O39       1.0000    0.48450   0.73960   0.92600   Biso      1.000     O          -0.506566           
         O40       1.0000    0.62070   0.10000   0.55490   Biso      1.000     O          -0.439821           
         O41       1.0000    0.74730   0.21070   0.52040   Biso      1.000     O          -0.483021           
         O42       1.0000    0.50900   0.28360   0.77300   Biso      1.000     O          -0.453687           
         O43       1.0000    0.55070   0.40040   0.70290   Biso      1.000     O          -0.5078199999999999           
         O44       1.0000    0.10770   0.90060   0.81720   Biso      1.000     O          -0.445565           
         O45       1.0000    0.24300   0.79140   0.84480   Biso      1.000     O          -0.48852700000000004          
         O46       1.0000    0.00370   0.71540   0.59890   Biso      1.000     O          -0.467658           
         O47       1.0000    0.01430   0.23960   0.94090   Biso      1.000     O          -0.488912           
         O48       1.0000    0.44930   0.90040   0.20290   Biso      1.000     O          -0.5078189999999999 