
##########################################################################
#               Crystallographic Information Format file
#               Produced by PyCifRW module
#
#  This is a CIF file.  CIF has been adopted by the International
#  Union of Crystallography as the standard for data archiving and
#  transmission.
#
#  For information on this file format, follow the CIF links at
#  http://www.iucr.org
##########################################################################

data_image0

_cell_length_a                          12.348
_cell_length_b                          14.802
_cell_length_c                          15.8779
_cell_angle_alpha                       90
_cell_angle_beta                        107.931
_cell_angle_gamma                       90
_symmetry_space_group_name_H-M          'P 1'
_symmetry_int_tables_number             1
loop_
  _symmetry_equiv_pos_as_xyz
         'x, y, z' 
loop_
  _atom_site_label
  _atom_site_occupancy
  _atom_site_fract_x
  _atom_site_fract_y
  _atom_site_fract_z
  _atom_site_thermal_displace_type
  _atom_site_B_iso_or_equiv
  _atom_site_type_symbol
  _atom_site_charge
         C1        1.0000    0.96870   0.77540   0.16180   Biso      1.000     C          -0.034553           
         C2        1.0000    0.21660   0.73750   0.37610   Biso      1.000     C          0.173794  
         C3        1.0000    0.07540   0.67950   0.41240   Biso      1.000     C          -0.019307           
         C4        1.0000    0.12660   0.61800   0.37900   Biso      1.000     C          -0.055298           
         C5        1.0000    0.34850   0.62430   0.59260   Biso      1.000     C          0.172893  
         C6        1.0000    0.46870   0.72460   0.66180   Biso      1.000     C          -0.034599           
         C7        1.0000    0.38920   0.71150   0.70220   Biso      1.000     C          -0.057292           
         C8        1.0000    0.79583   0.26752   0.13583   Biso      1.000     C          0.030323  
         C9        1.0000    0.62486   0.31872   0.00656   Biso      1.000     C          -0.144305           
         C10       1.0000    0.92830   0.65365   0.57620   Biso      1.000     C          0.003526  
         C11       1.0000    0.70733   0.09658   0.08133   Biso      1.000     C          -0.029058           
         C12       1.0000    0.69445   0.26986   0.86235   Biso      1.000     C          0.042113  
         C13       1.0000    0.78564   0.09897   0.91404   Biso      1.000     C          -0.031903           
         C14       1.0000    0.91885   0.15174   0.07195   Biso      1.000     C          0.012819  
         C15       1.0000    0.57170   0.15365   0.92380   Biso      1.000     C          0.003525  
         C16       1.0000    0.28340   0.23750   0.12390   Biso      1.000     C          0.17381   
         C17       1.0000    0.42460   0.17950   0.08760   Biso      1.000     C          -0.019295           
         C18       1.0000    0.37340   0.11800   0.12100   Biso      1.000     C          -0.055304           
         C19       1.0000    0.15150   0.12430   0.90740   Biso      1.000     C          0.172919  
         C20       1.0000    0.87121   0.31489   0.99081   Biso      1.000     C          -0.156772           
         C21       1.0000    0.03130   0.22460   0.83820   Biso      1.000     C          -0.03461  
         C22       1.0000    0.58115   0.65174   0.42805   Biso      1.000     C          0.012794  
         C23       1.0000    0.80555   0.76986   0.63765   Biso      1.000     C          0.042004  
         C24       1.0000    0.20417   0.73248   0.86417   Biso      1.000     C          0.03035   
         C25       1.0000    0.37514   0.68128   0.99344   Biso      1.000     C          -0.14429  
         C26       1.0000    0.29267   0.90342   0.91867   Biso      1.000     C          -0.029112           
         C27       1.0000    0.12879   0.68511   0.00919   Biso      1.000     C          -0.156768           
         C28       1.0000    0.30555   0.73014   0.13765   Biso      1.000     C          0.042038  
         C29       1.0000    0.21436   0.90103   0.08596   Biso      1.000     C          -0.031843           
         C30       1.0000    0.08115   0.84826   0.92805   Biso      1.000     C          0.012774  
         C31       1.0000    0.42830   0.84635   0.07620   Biso      1.000     C          0.003579  
         C32       1.0000    0.71436   0.59897   0.58596   Biso      1.000     C          -0.031782           
         C33       1.0000    0.71660   0.76250   0.87610   Biso      1.000     C          0.173772  
         C34       1.0000    0.62660   0.88200   0.87900   Biso      1.000     C          -0.055351           
         C35       1.0000    0.84850   0.87570   0.09260   Biso      1.000     C          0.172937  
         C36       1.0000    0.65150   0.37570   0.40740   Biso      1.000     C          0.172886  
         C37       1.0000    0.88920   0.78850   0.20220   Biso      1.000     C          -0.057263           
         C38       1.0000    0.70417   0.76752   0.36417   Biso      1.000     C          0.030389  
         C39       1.0000    0.87514   0.81872   0.49344   Biso      1.000     C          -0.144286           
         C40       1.0000    0.79267   0.59658   0.41867   Biso      1.000     C          -0.029137           
         C41       1.0000    0.62879   0.81489   0.50919   Biso      1.000     C          -0.156791           
         C42       1.0000    0.57540   0.82050   0.91240   Biso      1.000     C          -0.019253           
         C43       1.0000    0.11080   0.21150   0.79780   Biso      1.000     C          -0.057311           
         C44       1.0000    0.53130   0.27540   0.33820   Biso      1.000     C          -0.034612           
         C45       1.0000    0.92460   0.32050   0.58760   Biso      1.000     C          -0.019254           
         C46       1.0000    0.87340   0.38200   0.62100   Biso      1.000     C          -0.055266           
         C47       1.0000    0.78340   0.26250   0.62390   Biso      1.000     C          0.173838  
         C48       1.0000    0.07170   0.34635   0.42380   Biso      1.000     C          0.0035    
         C49       1.0000    0.41885   0.34826   0.57195   Biso      1.000     C          0.01286   
         C50       1.0000    0.28564   0.40103   0.41404   Biso      1.000     C          -0.031872           
         C51       1.0000    0.61080   0.28850   0.29780   Biso      1.000     C          -0.057307           
         C52       1.0000    0.37121   0.18511   0.49081   Biso      1.000     C          -0.156789           
         C53       1.0000    0.20733   0.40342   0.58133   Biso      1.000     C          -0.029122           
         C54       1.0000    0.12486   0.18128   0.50656   Biso      1.000     C          -0.144296           
         C55       1.0000    0.29583   0.23248   0.63583   Biso      1.000     C          0.030326  
         C56       1.0000    0.19445   0.23014   0.36235   Biso      1.000     C          0.042045  
         H1        1.0000    0.47600   0.66280   0.55340   Biso      1.000     H          0.299178  
         H2        1.0000    0.02400   0.16280   0.94660   Biso      1.000     H          0.29918   
         H3        1.0000    0.38270   0.31080   0.07400   Biso      1.000     H          0.320149  
         H4        1.0000    0.11260   0.24080   0.74640   Biso      1.000     H          0.112592  
         H5        1.0000    0.96970   0.26400   0.82140   Biso      1.000     H          0.127162  
         H6        1.0000    0.18590   0.08000   0.94840   Biso      1.000     H          0.089237  
         H7        1.0000    0.39520   0.05760   0.12780   Biso      1.000     H          0.113455  
         H8        1.0000    0.48640   0.17150   0.06660   Biso      1.000     H          0.124136  
         H9        1.0000    0.23040   0.27880   0.13150   Biso      1.000     H          0.10633   
         H10       1.0000    0.98640   0.32850   0.56660   Biso      1.000     H          0.124148  
         H11       1.0000    0.11730   0.81080   0.42600   Biso      1.000     H          0.32014   
         H12       1.0000    0.53030   0.76400   0.67860   Biso      1.000     H          0.12715   
         H13       1.0000    0.89520   0.44240   0.62780   Biso      1.000     H          0.11347   
         H14       1.0000    0.68590   0.42000   0.44840   Biso      1.000     H          0.089225  
         H15       1.0000    0.46970   0.23600   0.32140   Biso      1.000     H          0.127142  
         H16       1.0000    0.61260   0.25920   0.24640   Biso      1.000     H          0.112586  
         H17       1.0000    0.88270   0.18920   0.57400   Biso      1.000     H          0.320189  
         H18       1.0000    0.52400   0.33720   0.44660   Biso      1.000     H          0.299172  
         H19       1.0000    0.76960   0.72120   0.86850   Biso      1.000     H          0.106354  
         H20       1.0000    0.51360   0.82850   0.93340   Biso      1.000     H          0.124128  
         H21       1.0000    0.38740   0.74080   0.75360   Biso      1.000     H          0.112593  
         H22       1.0000    0.60480   0.94240   0.87220   Biso      1.000     H          0.113443  
         H23       1.0000    0.03030   0.73600   0.17860   Biso      1.000     H          0.127187  
         H24       1.0000    0.88740   0.75920   0.25360   Biso      1.000     H          0.112623  
         H25       1.0000    0.61730   0.68920   0.92600   Biso      1.000     H          0.320183  
         H26       1.0000    0.97600   0.83720   0.05340   Biso      1.000     H          0.2992    
         H27       1.0000    0.26960   0.77880   0.36850   Biso      1.000     H          0.106335  
         H28       1.0000    0.01360   0.67150   0.43340   Biso      1.000     H          0.12413   
         H29       1.0000    0.10480   0.55760   0.37220   Biso      1.000     H          0.113435  
         H30       1.0000    0.31410   0.58000   0.55160   Biso      1.000     H          0.089227  
         H31       1.0000    0.81410   0.92000   0.05160   Biso      1.000     H          0.08926   
         H32       1.0000    0.73040   0.22120   0.63150   Biso      1.000     H          0.106369  
         Mn1       1.0000    0.31838   0.08040   0.79617   Biso      1.000     Mn          0.973537  
         Mn2       1.0000    0.18162   0.58040   0.70383   Biso      1.000     Mn          0.973582  
         Mn3       1.0000    0.66979   0.42163   0.70224   Biso      1.000     Mn          0.971156  
         Mn4       1.0000    0.81838   0.41960   0.29617   Biso      1.000     Mn          0.973471  
         Mn5       1.0000    0.83021   0.92163   0.79776   Biso      1.000     Mn          0.970727  
         Mn6       1.0000    0.68162   0.91960   0.20383   Biso      1.000     Mn          0.97386   
         Mn7       1.0000    0.33021   0.57837   0.29776   Biso      1.000     Mn          0.970813  
         Mn8       1.0000    0.16979   0.07837   0.20224   Biso      1.000     Mn          0.970909  
         N1        1.0000    0.06326   0.63295   0.01556   Biso      1.000     N          -0.327107           
         N2        1.0000    0.32810   0.69451   0.20500   Biso      1.000     N          -0.380809           
         N3        1.0000    0.19333   0.95737   0.12763   Biso      1.000     N          -0.375567           
         N4        1.0000    0.99138   0.87470   0.89231   Biso      1.000     N          -0.376937           
         N5        1.0000    0.51780   0.87174   0.11488   Biso      1.000     N          -0.361496           
         N6        1.0000    0.69333   0.54263   0.62763   Biso      1.000     N          -0.375584           
         N7        1.0000    0.30913   0.96034   0.87553   Biso      1.000     N          -0.369061           
         N8        1.0000    0.71498   0.84782   0.85538   Biso      1.000     N          -0.321279           
         N9        1.0000    0.94040   0.83140   0.09190   Biso      1.000     N          -0.197469           
         N10       1.0000    0.81113   0.85092   0.15713   Biso      1.000     N          -0.313335           
         N11       1.0000    0.63260   0.74180   0.90960   Biso      1.000     N          -0.215247           
         N12       1.0000    0.43507   0.62432   0.98717   Biso      1.000     N          -0.334785           
         N13       1.0000    0.78502   0.34782   0.64462   Biso      1.000     N          -0.321315           
         N14       1.0000    0.68887   0.35092   0.34287   Biso      1.000     N          -0.313301           
         N15       1.0000    0.55960   0.33140   0.40810   Biso      1.000     N          -0.197505           
         N16       1.0000    0.68459   0.80273   0.29659   Biso      1.000     N          -0.363552           
         N17       1.0000    0.86740   0.24180   0.59040   Biso      1.000     N          -0.21519  
         N18       1.0000    0.98220   0.37174   0.38512   Biso      1.000     N          -0.361414           
         N19       1.0000    0.50862   0.37470   0.60769   Biso      1.000     N          -0.376927           
         N20       1.0000    0.30667   0.45737   0.37237   Biso      1.000     N          -0.375478           
         N21       1.0000    0.17190   0.19451   0.29500   Biso      1.000     N          -0.380783           
         N22       1.0000    0.43674   0.13295   0.48444   Biso      1.000     N          -0.327049           
         N23       1.0000    0.19087   0.46034   0.62447   Biso      1.000     N          -0.36902  
         N24       1.0000    0.18459   0.69727   0.79659   Biso      1.000     N          -0.363555           
         N25       1.0000    0.93507   0.87568   0.48717   Biso      1.000     N          -0.334753           
         N26       1.0000    0.31541   0.19727   0.70341   Biso      1.000     N          -0.363497           
         N27       1.0000    0.56326   0.86705   0.51556   Biso      1.000     N          -0.327075           
         N28       1.0000    0.18887   0.14908   0.84287   Biso      1.000     N          -0.313305           
         N29       1.0000    0.05960   0.16860   0.90810   Biso      1.000     N          -0.197485           
         N30       1.0000    0.28502   0.15218   0.14462   Biso      1.000     N          -0.321301           
         N31       1.0000    0.36740   0.25820   0.09040   Biso      1.000     N          -0.215196           
         N32       1.0000    0.48220   0.12826   0.88512   Biso      1.000     N          -0.361443           
         N33       1.0000    0.00862   0.12530   0.10769   Biso      1.000     N          -0.37693  
         N34       1.0000    0.80667   0.04263   0.87237   Biso      1.000     N          -0.375509           
         N35       1.0000    0.67190   0.30549   0.79500   Biso      1.000     N          -0.38085  
         N36       1.0000    0.80913   0.53966   0.37553   Biso      1.000     N          -0.369041           
         N37       1.0000    0.69087   0.03966   0.12447   Biso      1.000     N          -0.369087           
         N38       1.0000    0.93674   0.36705   0.98444   Biso      1.000     N          -0.32706  
         N39       1.0000    0.81541   0.30273   0.20341   Biso      1.000     N          -0.363529           
         N40       1.0000    0.31113   0.64908   0.65713   Biso      1.000     N          -0.313305           
         N41       1.0000    0.44040   0.66860   0.59190   Biso      1.000     N          -0.197496           
         N42       1.0000    0.21498   0.65218   0.35538   Biso      1.000     N          -0.3213   
         N43       1.0000    0.13260   0.75820   0.40960   Biso      1.000     N          -0.215213           
         N44       1.0000    0.01780   0.62826   0.61488   Biso      1.000     N          -0.361453           
         N45       1.0000    0.49138   0.62530   0.39231   Biso      1.000     N          -0.376909           
         N46       1.0000    0.06493   0.12432   0.51283   Biso      1.000     N          -0.334736           
         N47       1.0000    0.82810   0.80549   0.70500   Biso      1.000     N          -0.380788           
         N48       1.0000    0.56493   0.37568   0.01283   Biso      1.000     N          -0.334742           
         Nb1       1.0000    0.74544   0.20821   0.99855   Biso      1.000     Nb          0.792687  
         Nb2       1.0000    0.75456   0.70821   0.50145   Biso      1.000     Nb          0.79269   
         Nb3       1.0000    0.25456   0.79179   0.00145   Biso      1.000     Nb          0.792695  
         Nb4       1.0000    0.24544   0.29179   0.49855   Biso      1.000     Nb          0.792722 