
##########################################################################
#               Crystallographic Information Format file
#               Produced by PyCifRW module
#
#  This is a CIF file.  CIF has been adopted by the International
#  Union of Crystallography as the standard for data archiving and
#  transmission.
#
#  For information on this file format, follow the CIF links at
#  http://www.iucr.org
##########################################################################

data_image0

_cell_length_a                          12.6974
_cell_length_b                          16.7309
_cell_length_c                          14.8076
_cell_angle_alpha                       90
_cell_angle_beta                        91.452
_cell_angle_gamma                       90
_symmetry_space_group_name_H-M          'P 1'
_symmetry_int_tables_number             1
loop_
  _symmetry_equiv_pos_as_xyz
         'x, y, z' 
loop_
  _atom_site_label
  _atom_site_occupancy
  _atom_site_fract_x
  _atom_site_fract_y
  _atom_site_fract_z
  _atom_site_thermal_displace_type
  _atom_site_B_iso_or_equiv
  _atom_site_type_symbol
  _atom_site_charge
         C1        1.0000    0.00000   0.68890   0.75000   Biso      1.000     C          0.479049  
         C2        1.0000    0.27180   0.42710   0.20230   Biso      1.000     C          -0.26005  
         C3        1.0000    0.27830   0.37690   0.11600   Biso      1.000     C          0.726726  
         C4        1.0000    0.91140   0.18880   0.28970   Biso      1.000     C          -0.238481           
         C5        1.0000    0.89820   0.21380   0.38740   Biso      1.000     C          0.701626  
         C6        1.0000    0.16680   0.55450   0.20100   Biso      1.000     C          -0.239709           
         C7        1.0000    0.15260   0.60060   0.28710   Biso      1.000     C          0.636509  
         C8        1.0000    0.83320   0.44550   0.79900   Biso      1.000     C          -0.23970999999999998          
         C9        1.0000    0.58520   0.92680   0.23200   Biso      1.000     C          0.4874    
         C10       1.0000    0.77180   0.92710   0.20230   Biso      1.000     C          -0.26005100000000003          
         C11       1.0000    0.77830   0.87690   0.11600   Biso      1.000     C          0.726726  
         C12       1.0000    0.41140   0.68880   0.28970   Biso      1.000     C          -0.238481           
         C13       1.0000    0.39820   0.71380   0.38740   Biso      1.000     C          0.701626  
         C14       1.0000    0.66680   0.05450   0.20100   Biso      1.000     C          -0.239709           
         C15       1.0000    0.65260   0.10060   0.28710   Biso      1.000     C          0.636509  
         C16       1.0000    0.10180   0.78620   0.61260   Biso      1.000     C          0.701624  
         C17       1.0000    0.08860   0.81120   0.71030   Biso      1.000     C          -0.238483           
         C18       1.0000    0.72170   0.62310   0.88400   Biso      1.000     C          0.726713  
         C19       1.0000    0.08520   0.42680   0.23200   Biso      1.000     C          0.4874    
         C20       1.0000    0.41480   0.07320   0.76800   Biso      1.000     C          0.487403  
         C21       1.0000    0.65260   0.89940   0.78710   Biso      1.000     C          0.6365029999999999  
         C22       1.0000    0.66680   0.94550   0.70100   Biso      1.000     C          -0.23970999999999998          
         C23       1.0000    0.34740   0.89940   0.71290   Biso      1.000     C          0.6365029999999999  
         C24       1.0000    0.33320   0.94550   0.79900   Biso      1.000     C          -0.23970999999999998          
         C25       1.0000    0.08520   0.57320   0.73200   Biso      1.000     C          0.487403  
         C26       1.0000    0.27180   0.57290   0.70230   Biso      1.000     C          -0.26005300000000003          
         C27       1.0000    0.27830   0.62310   0.61600   Biso      1.000     C          0.726713  
         C28       1.0000    0.91140   0.81120   0.78970   Biso      1.000     C          -0.238483           
         C29       1.0000    0.89820   0.78620   0.88740   Biso      1.000     C          0.701624  
         C30       1.0000    0.16680   0.44550   0.70100   Biso      1.000     C          -0.23970999999999998          
         C31       1.0000    0.72820   0.57290   0.79770   Biso      1.000     C          -0.26005300000000003          
         C32       1.0000    0.15260   0.39940   0.78710   Biso      1.000     C          0.6365029999999999  
         C33       1.0000    0.58860   0.31120   0.71030   Biso      1.000     C          -0.238483           
         C34       1.0000    0.22170   0.12310   0.88400   Biso      1.000     C          0.726713  
         C35       1.0000    0.22820   0.07290   0.79770   Biso      1.000     C          -0.26005300000000003          
         C36       1.0000    0.58520   0.07320   0.73200   Biso      1.000     C          0.487403  
         C37       1.0000    0.77180   0.07290   0.70230   Biso      1.000     C          -0.26005300000000003          
         C38       1.0000    0.77830   0.12310   0.61600   Biso      1.000     C          0.726713  
         C39       1.0000    0.41140   0.31120   0.78970   Biso      1.000     C          -0.238483           
         C40       1.0000    0.39820   0.28620   0.88740   Biso      1.000     C          0.701624  
         C41       1.0000    0.60180   0.28620   0.61260   Biso      1.000     C          0.701624  
         C42       1.0000    0.91480   0.42680   0.26800   Biso      1.000     C          0.4874    
         C43       1.0000    0.84740   0.39940   0.71290   Biso      1.000     C          0.6365029999999999  
         C44       1.0000    0.91480   0.57320   0.76800   Biso      1.000     C          0.487403  
         C45       1.0000    0.50000   0.81110   0.25000   Biso      1.000     C          0.479051  
         C46       1.0000    0.00000   0.31110   0.25000   Biso      1.000     C          0.479051  
         C47       1.0000    0.34740   0.10060   0.21290   Biso      1.000     C          0.636509  
         C48       1.0000    0.41480   0.92680   0.26800   Biso      1.000     C          0.4874    
         C49       1.0000    0.33320   0.05450   0.29900   Biso      1.000     C          -0.239709           
         C50       1.0000    0.22820   0.92710   0.29770   Biso      1.000     C          -0.26005100000000003          
         C51       1.0000    0.84740   0.60060   0.21290   Biso      1.000     C          0.636509  
         C52       1.0000    0.22170   0.87690   0.38400   Biso      1.000     C          0.726726  
         C53       1.0000    0.10180   0.21380   0.11260   Biso      1.000     C          0.701626  
         C54       1.0000    0.83320   0.55450   0.29900   Biso      1.000     C          -0.239709           
         C55       1.0000    0.50000   0.18890   0.75000   Biso      1.000     C          0.479049  
         C56       1.0000    0.72820   0.42710   0.29770   Biso      1.000     C          -0.26005100000000003          
         C57       1.0000    0.72170   0.37690   0.38400   Biso      1.000     C          0.726726  
         C58       1.0000    0.58860   0.68880   0.21030   Biso      1.000     C          -0.238481           
         C59       1.0000    0.60180   0.71380   0.11260   Biso      1.000     C          0.701626  
         C60       1.0000    0.08860   0.18880   0.21030   Biso      1.000     C          -0.238481           
         H1        1.0000    0.28310   0.39230   0.25400   Biso      1.000     H          0.14898699999999998           
         H2        1.0000    0.32850   0.46600   0.20280   Biso      1.000     H          0.138991  
         H3        1.0000    0.23070   0.42720   0.67300   Biso      1.000     H          0.141823  
         H4        1.0000    0.10830   0.43350   0.65990   Biso      1.000     H          0.126529  
         H5        1.0000    0.67150   0.46600   0.29720   Biso      1.000     H          0.138991  
         H6        1.0000    0.65240   0.29860   0.74480   Biso      1.000     H          0.142243  
         H7        1.0000    0.26930   0.07280   0.32700   Biso      1.000     H          0.14182   
         H8        1.0000    0.17150   0.03400   0.79720   Biso      1.000     H          0.138987  
         H9        1.0000    0.17150   0.96600   0.29720   Biso      1.000     H          0.138991  
         H10       1.0000    0.60830   0.93350   0.65990   Biso      1.000     H          0.126529  
         H11       1.0000    0.73070   0.92720   0.67300   Biso      1.000     H          0.141823  
         H12       1.0000    0.21690   0.10770   0.74600   Biso      1.000     H          0.148984  
         H13       1.0000    0.84760   0.20140   0.25520   Biso      1.000     H          0.142242  
         H14       1.0000    0.82850   0.03400   0.70280   Biso      1.000     H          0.138987  
         H15       1.0000    0.42230   0.36850   0.78690   Biso      1.000     H          0.144047  
         H16       1.0000    0.34760   0.29860   0.75520   Biso      1.000     H          0.142243  
         H17       1.0000    0.65240   0.70140   0.24480   Biso      1.000     H          0.142242  
         H18       1.0000    0.57770   0.63150   0.21310   Biso      1.000     H          0.144046  
         H19       1.0000    0.78310   0.10770   0.75400   Biso      1.000     H          0.148984  
         H20       1.0000    0.21690   0.89230   0.24600   Biso      1.000     H          0.14898699999999998           
         H21       1.0000    0.92230   0.13150   0.28690   Biso      1.000     H          0.144046  
         H22       1.0000    0.71690   0.39230   0.24600   Biso      1.000     H          0.14898699999999998           
         H23       1.0000    0.57770   0.36850   0.71310   Biso      1.000     H          0.144047  
         H24       1.0000    0.15240   0.79860   0.74480   Biso      1.000     H          0.142243  
         H25       1.0000    0.07770   0.86850   0.71310   Biso      1.000     H          0.144047  
         H26       1.0000    0.15240   0.20140   0.24480   Biso      1.000     H          0.142242  
         H27       1.0000    0.07770   0.13150   0.21310   Biso      1.000     H          0.144046  
         H28       1.0000    0.76930   0.42720   0.82700   Biso      1.000     H          0.141823  
         H29       1.0000    0.60830   0.06650   0.15990   Biso      1.000     H          0.12653   
         H30       1.0000    0.73070   0.07280   0.17300   Biso      1.000     H          0.14182   
         H31       1.0000    0.76930   0.57280   0.32700   Biso      1.000     H          0.14182   
         H32       1.0000    0.89170   0.56650   0.34010   Biso      1.000     H          0.12653   
         H33       1.0000    0.42230   0.63150   0.28690   Biso      1.000     H          0.144046  
         H34       1.0000    0.34760   0.70140   0.25520   Biso      1.000     H          0.142242  
         H35       1.0000    0.78310   0.89230   0.25400   Biso      1.000     H          0.14898699999999998           
         H36       1.0000    0.82850   0.96600   0.20280   Biso      1.000     H          0.138991  
         H37       1.0000    0.39170   0.93350   0.84010   Biso      1.000     H          0.126529  
         H38       1.0000    0.89170   0.43350   0.84010   Biso      1.000     H          0.126529  
         H39       1.0000    0.39170   0.06650   0.34010   Biso      1.000     H          0.12653   
         H40       1.0000    0.23070   0.57280   0.17300   Biso      1.000     H          0.14182   
         H41       1.0000    0.32850   0.53400   0.70280   Biso      1.000     H          0.138987  
         H42       1.0000    0.10830   0.56650   0.15990   Biso      1.000     H          0.12653   
         H43       1.0000    0.28310   0.60770   0.75400   Biso      1.000     H          0.148984  
         H44       1.0000    0.67150   0.53400   0.79720   Biso      1.000     H          0.138987  
         H45       1.0000    0.84760   0.79860   0.75520   Biso      1.000     H          0.142243  
         H46       1.0000    0.26930   0.92720   0.82700   Biso      1.000     H          0.141823  
         H47       1.0000    0.92230   0.86850   0.78690   Biso      1.000     H          0.144047  
         H48       1.0000    0.71690   0.60770   0.74600   Biso      1.000     H          0.148984  
         N1        1.0000    0.32690   0.96900   0.28730   Biso      1.000     N          -0.058914           
         N2        1.0000    0.00000   0.47100   0.25000   Biso      1.000     N          -0.533868           
         N3        1.0000    0.50000   0.27070   0.75000   Biso      1.000     N          -0.073987           
         N4        1.0000    0.09130   0.65300   0.73210   Biso      1.000     N          -0.5335489999999999           
         N5        1.0000    0.17310   0.53100   0.71270   Biso      1.000     N          -0.058913           
         N6        1.0000    0.50000   0.02900   0.75000   Biso      1.000     N          -0.533878           
         N7        1.0000    0.00000   0.77070   0.75000   Biso      1.000     N          -0.073987           
         N8        1.0000    0.40870   0.84700   0.26790   Biso      1.000     N          -0.5335529999999999           
         N9        1.0000    0.32690   0.03100   0.78730   Biso      1.000     N          -0.058913           
         N10       1.0000    0.67310   0.03100   0.71270   Biso      1.000     N          -0.058913           
         N11       1.0000    0.00000   0.52900   0.75000   Biso      1.000     N          -0.533878           
         N12       1.0000    0.67310   0.96900   0.21270   Biso      1.000     N          -0.058914           
         N13       1.0000    0.59130   0.84700   0.23210   Biso      1.000     N          -0.5335529999999999           
         N14       1.0000    0.90870   0.34700   0.26790   Biso      1.000     N          -0.5335529999999999           
         N15       1.0000    0.00000   0.22930   0.25000   Biso      1.000     N          -0.073987           
         N16       1.0000    0.50000   0.97100   0.25000   Biso      1.000     N          -0.533868           
         N17       1.0000    0.50000   0.72930   0.25000   Biso      1.000     N          -0.073987           
         N18       1.0000    0.09130   0.34700   0.23210   Biso      1.000     N          -0.533554           
         N19       1.0000    0.17310   0.46900   0.21270   Biso      1.000     N          -0.058914           
         N20       1.0000    0.59130   0.15300   0.73210   Biso      1.000     N          -0.5335489999999999           
         N21       1.0000    0.82690   0.46900   0.28730   Biso      1.000     N          -0.058914           
         N22       1.0000    0.82690   0.53100   0.78730   Biso      1.000     N          -0.058913           
         N23       1.0000    0.90870   0.65300   0.76790   Biso      1.000     N          -0.5335489999999999           
         N24       1.0000    0.40870   0.15300   0.76790   Biso      1.000     N          -0.5335489999999999           
         O1        1.0000    0.79130   0.61440   0.94380   Biso      1.000     O          -0.675053           
         O2        1.0000    0.19290   0.78310   0.57970   Biso      1.000     O          -0.756055           
         O3        1.0000    0.02250   0.76720   0.56450   Biso      1.000     O          -0.658768           
         O4        1.0000    0.82690   0.42850   0.63620   Biso      1.000     O          -0.648799           
         O5        1.0000    0.64430   0.66990   0.88550   Biso      1.000     O          -0.681376           
         O6        1.0000    0.87860   0.32710   0.71940   Biso      1.000     O          -0.689064           
         O7        1.0000    0.70870   0.11440   0.55620   Biso      1.000     O          -0.675053           
         O8        1.0000    0.29130   0.11440   0.94380   Biso      1.000     O          -0.675053           
         O9        1.0000    0.17310   0.57150   0.36380   Biso      1.000     O          -0.648794           
         O10       1.0000    0.85570   0.83010   0.11450   Biso      1.000     O          -0.681384           
         O11       1.0000    0.70870   0.88560   0.05620   Biso      1.000     O          -0.6750520000000001           
         O12       1.0000    0.30710   0.71690   0.42030   Biso      1.000     O          -0.756083           
         O13       1.0000    0.47750   0.73280   0.43550   Biso      1.000     O          -0.658764           
         O14       1.0000    0.62140   0.17290   0.28060   Biso      1.000     O          -0.689102           
         O15       1.0000    0.67310   0.07150   0.36380   Biso      1.000     O          -0.648794           
         O16       1.0000    0.64430   0.33010   0.38550   Biso      1.000     O          -0.681384           
         O17       1.0000    0.79130   0.38560   0.44380   Biso      1.000     O          -0.6750520000000001           
         O18       1.0000    0.19290   0.21690   0.07970   Biso      1.000     O          -0.756083           
         O19       1.0000    0.02250   0.23280   0.06450   Biso      1.000     O          -0.658764           
         O20       1.0000    0.87860   0.67290   0.21940   Biso      1.000     O          -0.689102           
         O21       1.0000    0.82690   0.57150   0.13620   Biso      1.000     O          -0.648794           
         O22       1.0000    0.14430   0.83010   0.38550   Biso      1.000     O          -0.681384           
         O23       1.0000    0.29130   0.88560   0.44380   Biso      1.000     O          -0.6750520000000001           
         O24       1.0000    0.69290   0.71690   0.07970   Biso      1.000     O          -0.756083           
         O25       1.0000    0.52250   0.73280   0.06450   Biso      1.000     O          -0.658764           
         O26       1.0000    0.37860   0.17290   0.21940   Biso      1.000     O          -0.689102           
         O27       1.0000    0.32690   0.07150   0.13620   Biso      1.000     O          -0.648794           
         O28       1.0000    0.14430   0.16990   0.88550   Biso      1.000     O          -0.681376           
         O29       1.0000    0.97750   0.23280   0.43550   Biso      1.000     O          -0.658764           
         O30       1.0000    0.12140   0.67290   0.28060   Biso      1.000     O          -0.689102           
         O31       1.0000    0.20870   0.38560   0.05620   Biso      1.000     O          -0.6750520000000001           
         O32       1.0000    0.69290   0.28310   0.57970   Biso      1.000     O          -0.756055           
         O33       1.0000    0.52250   0.26720   0.56450   Biso      1.000     O          -0.658768           
         O34       1.0000    0.37860   0.82710   0.71940   Biso      1.000     O          -0.6890649999999999           
         O35       1.0000    0.32690   0.92850   0.63620   Biso      1.000     O          -0.648799           
         O36       1.0000    0.35570   0.66990   0.61450   Biso      1.000     O          -0.681376           
         O37       1.0000    0.20870   0.61440   0.55620   Biso      1.000     O          -0.675053           
         O38       1.0000    0.80710   0.78310   0.92030   Biso      1.000     O          -0.756055           
         O39       1.0000    0.97750   0.76720   0.93550   Biso      1.000     O          -0.658767           
         O40       1.0000    0.12140   0.32710   0.78060   Biso      1.000     O          -0.689064           
         O41       1.0000    0.80710   0.21690   0.42030   Biso      1.000     O          -0.756083           
         O42       1.0000    0.17310   0.42850   0.86380   Biso      1.000     O          -0.648799           
         O43       1.0000    0.85570   0.16990   0.61450   Biso      1.000     O          -0.681376           
         O44       1.0000    0.30710   0.28310   0.92030   Biso      1.000     O          -0.756055           
         O45       1.0000    0.47750   0.26720   0.93550   Biso      1.000     O          -0.658768           
         O46       1.0000    0.62140   0.82710   0.78060   Biso      1.000     O          -0.6890649999999999           
         O47       1.0000    0.67310   0.92850   0.86380   Biso      1.000     O          -0.648799           
         O48       1.0000    0.35570   0.33010   0.11450   Biso      1.000     O          -0.681384           
         Sm1       1.0000    0.62310   0.19836   0.44465   Biso      1.000     Sm          2.10941   
         Sm2       1.0000    0.87690   0.30165   0.55535   Biso      1.000     Sm          2.109375  
         Sm3       1.0000    0.87690   0.69836   0.05535   Biso      1.000     Sm          2.10941   
         Sm4       1.0000    0.37690   0.80165   0.55535   Biso      1.000     Sm          2.1093759999999997  
         Sm5       1.0000    0.12310   0.69836   0.44465   Biso      1.000     Sm          2.10941   
         Sm6       1.0000    0.62310   0.80165   0.94465   Biso      1.000     Sm          2.109375  
         Sm7       1.0000    0.12310   0.30165   0.94465   Biso      1.000     Sm          2.109375  
         Sm8       1.0000    0.37690   0.19836   0.05535   Biso      1.000     Sm          2.10941 