
##########################################################################
#               Crystallographic Information Format file
#               Produced by PyCifRW module
#
#  This is a CIF file.  CIF has been adopted by the International
#  Union of Crystallography as the standard for data archiving and
#  transmission.
#
#  For information on this file format, follow the CIF links at
#  http://www.iucr.org
##########################################################################

data_image0

_cell_length_a                          14.29
_cell_length_b                          12.973
_cell_length_c                          17.818
_cell_angle_alpha                       90
_cell_angle_beta                        95.33
_cell_angle_gamma                       90
_symmetry_space_group_name_H-M          'P 1'
_symmetry_int_tables_number             1
loop_
  _symmetry_equiv_pos_as_xyz
         'x, y, z' 
loop_
  _atom_site_label
  _atom_site_occupancy
  _atom_site_fract_x
  _atom_site_fract_y
  _atom_site_fract_z
  _atom_site_thermal_displace_type
  _atom_site_B_iso_or_equiv
  _atom_site_type_symbol
  _atom_site_charge
         C1        1.0000    0.77470   0.36710   0.83100   Biso      1.000     C          -0.131424           
         C2        1.0000    0.22410   0.68370   0.01580   Biso      1.000     C          0.079399  
         C3        1.0000    0.27490   0.59800   0.04610   Biso      1.000     C          -0.158404           
         C4        1.0000    0.27690   0.57520   0.12190   Biso      1.000     C          -0.005352           
         C5        1.0000    0.22530   0.63290   0.16900   Biso      1.000     C          -0.131424           
         C6        1.0000    0.17060   0.71340   0.13890   Biso      1.000     C          -0.012014           
         C7        1.0000    0.17210   0.73940   0.06400   Biso      1.000     C          -0.14796099999999998          
         C8        1.0000    0.88520   0.22320   0.81030   Biso      1.000     C          0.629343  
         C9        1.0000    0.29910   0.67700   0.89400   Biso      1.000     C          -0.183989           
         C10       1.0000    0.65800   0.50910   0.84430   Biso      1.000     C          0.632848  
         C11       1.0000    0.62470   0.33960   0.22620   Biso      1.000     C          0.574854  
         C12       1.0000    0.82790   0.26060   0.93600   Biso      1.000     C          -0.147964           
         C13       1.0000    0.82940   0.28660   0.86110   Biso      1.000     C          -0.012014           
         C14       1.0000    0.23440   0.76970   0.78430   Biso      1.000     C          -0.126795           
         C15       1.0000    0.72310   0.42480   0.87810   Biso      1.000     C          -0.005352           
         C16       1.0000    0.72510   0.40200   0.95390   Biso      1.000     C          -0.158404           
         C17       1.0000    0.77590   0.31630   0.98420   Biso      1.000     C          0.0794    
         C18       1.0000    0.90210   0.11120   0.21050   Biso      1.000     C          0.57058   
         C19       1.0000    0.70090   0.32300   0.10600   Biso      1.000     C          -0.183989           
         C20       1.0000    0.19820   0.20440   0.68090   Biso      1.000     C          -0.029439999999999997         
         C21       1.0000    0.33350   0.31110   0.67440   Biso      1.000     C          0.007611  
         C22       1.0000    0.16650   0.81110   0.82560   Biso      1.000     C          0.007615  
         C23       1.0000    0.16180   0.78260   0.90020   Biso      1.000     C          -0.151558           
         C24       1.0000    0.22770   0.71410   0.93610   Biso      1.000     C          0.076528  
         C25       1.0000    0.38520   0.27680   0.31030   Biso      1.000     C          0.629342  
         C26       1.0000    0.15800   0.99090   0.34430   Biso      1.000     C          0.632848  
         C27       1.0000    0.40210   0.38880   0.71050   Biso      1.000     C          0.5705819999999999  
         C28       1.0000    0.12470   0.16040   0.72620   Biso      1.000     C          0.574855  
         C29       1.0000    0.26560   0.26970   0.71570   Biso      1.000     C          -0.126789           
         C30       1.0000    0.32790   0.23940   0.43600   Biso      1.000     C          -0.147964           
         C31       1.0000    0.27470   0.13290   0.33100   Biso      1.000     C          -0.131424           
         C32       1.0000    0.22310   0.07520   0.37810   Biso      1.000     C          -0.005352           
         C33       1.0000    0.22510   0.09800   0.45390   Biso      1.000     C          -0.158404           
         C34       1.0000    0.27590   0.18370   0.48420   Biso      1.000     C          0.0794    
         C35       1.0000    0.20090   0.17700   0.60600   Biso      1.000     C          -0.183988           
         C36       1.0000    0.27230   0.21410   0.56390   Biso      1.000     C          0.076527  
         C37       1.0000    0.33820   0.28260   0.59980   Biso      1.000     C          -0.151558           
         C38       1.0000    0.32940   0.21340   0.36110   Biso      1.000     C          -0.012013           
         C39       1.0000    0.77230   0.28590   0.06390   Biso      1.000     C          0.076528  
         C40       1.0000    0.30180   0.70440   0.81910   Biso      1.000     C          -0.029436           
         C41       1.0000    0.83820   0.21740   0.09980   Biso      1.000     C          -0.15156  
         C42       1.0000    0.80180   0.79560   0.31910   Biso      1.000     C          -0.029439           
         C43       1.0000    0.73440   0.73030   0.28430   Biso      1.000     C          -0.12679300000000002          
         C44       1.0000    0.66650   0.68890   0.32560   Biso      1.000     C          0.007614  
         C45       1.0000    0.66180   0.71740   0.40020   Biso      1.000     C          -0.151558           
         C46       1.0000    0.72770   0.78590   0.43610   Biso      1.000     C          0.076528  
         C47       1.0000    0.79910   0.82300   0.39400   Biso      1.000     C          -0.183988           
         C48       1.0000    0.72410   0.81630   0.51580   Biso      1.000     C          0.079398  
         C49       1.0000    0.77490   0.90200   0.54610   Biso      1.000     C          -0.158404           
         C50       1.0000    0.77690   0.92480   0.62190   Biso      1.000     C          -0.005352           
         C51       1.0000    0.72530   0.86710   0.66900   Biso      1.000     C          -0.131424           
         C52       1.0000    0.67060   0.78660   0.63890   Biso      1.000     C          -0.012014           
         C53       1.0000    0.87530   0.83960   0.27380   Biso      1.000     C          0.574855  
         C54       1.0000    0.59790   0.61120   0.28950   Biso      1.000     C          0.570583  
         C55       1.0000    0.84200   0.00910   0.65570   Biso      1.000     C          0.632847  
         C56       1.0000    0.61480   0.72320   0.68970   Biso      1.000     C          0.629343  
         C57       1.0000    0.67210   0.76060   0.56400   Biso      1.000     C          -0.14796099999999998          
         C58       1.0000    0.09790   0.88880   0.78950   Biso      1.000     C          0.5705819999999999  
         C59       1.0000    0.69820   0.29560   0.18090   Biso      1.000     C          -0.029438           
         C60       1.0000    0.11480   0.77680   0.18970   Biso      1.000     C          0.629342  
         C61       1.0000    0.83350   0.18890   0.17440   Biso      1.000     C          0.007613  
         C62       1.0000    0.34200   0.49090   0.15570   Biso      1.000     C          0.632847  
         C63       1.0000    0.76560   0.23030   0.21570   Biso      1.000     C          -0.12679  
         C64       1.0000    0.37530   0.66040   0.77380   Biso      1.000     C          0.574855  
         H1        1.0000    0.61440   0.69070   0.42690   Biso      1.000     H          0.13261900000000001           
         H2        1.0000    0.69260   0.44360   0.98520   Biso      1.000     H          0.12975   
         H3        1.0000    0.11440   0.80930   0.92690   Biso      1.000     H          0.13261900000000001           
         H4        1.0000    0.76510   0.21450   0.26660   Biso      1.000     H          0.132442  
         H5        1.0000    0.27260   0.11770   0.27990   Biso      1.000     H          0.128114  
         H6        1.0000    0.84510   0.86650   0.41670   Biso      1.000     H          0.12161300000000001           
         H7        1.0000    0.13730   0.79580   0.04510   Biso      1.000     H          0.131597  
         H8        1.0000    0.19260   0.05640   0.48520   Biso      1.000     H          0.12975   
         H9        1.0000    0.77260   0.38230   0.77990   Biso      1.000     H          0.128114  
         H10       1.0000    0.36270   0.29580   0.45490   Biso      1.000     H          0.131597  
         H11       1.0000    0.80740   0.94360   0.51480   Biso      1.000     H          0.12975   
         H12       1.0000    0.73490   0.71450   0.23340   Biso      1.000     H          0.132443  
         H13       1.0000    0.38560   0.30930   0.57310   Biso      1.000     H          0.13261900000000001           
         H14       1.0000    0.72740   0.88230   0.72010   Biso      1.000     H          0.128114  
         H15       1.0000    0.86270   0.20420   0.95490   Biso      1.000     H          0.131597  
         H16       1.0000    0.26510   0.28550   0.76660   Biso      1.000     H          0.132442  
         H17       1.0000    0.88560   0.19070   0.07310   Biso      1.000     H          0.13261900000000001           
         H18       1.0000    0.63730   0.70420   0.54510   Biso      1.000     H          0.131597  
         H19       1.0000    0.34510   0.63350   0.91670   Biso      1.000     H          0.12161199999999998           
         H20       1.0000    0.30740   0.55640   0.01480   Biso      1.000     H          0.12975   
         H21       1.0000    0.23490   0.78550   0.73340   Biso      1.000     H          0.132442  
         H22       1.0000    0.22740   0.61770   0.22010   Biso      1.000     H          0.128114  
         H23       1.0000    0.15490   0.13350   0.58330   Biso      1.000     H          0.12161199999999998           
         H24       1.0000    0.65490   0.36650   0.08330   Biso      1.000     H          0.12161300000000001           
         O1        1.0000    0.36050   0.41690   0.11400   Biso      1.000     O          -0.569084           
         O2        1.0000    0.04910   0.93900   0.83270   Biso      1.000     O          -0.544666           
         O3        1.0000    0.36020   0.64900   0.70570   Biso      1.000     O          -0.452966           
         O4        1.0000    0.45380   0.63030   0.81010   Biso      1.000     O          -0.5986560000000001           
         O5        1.0000    0.37370   0.50510   0.22260   Biso      1.000     O          -0.522455           
         O6        1.0000    0.09420   0.90330   0.72120   Biso      1.000     O          -0.526157           
         O7        1.0000    0.93140   0.14900   0.84160   Biso      1.000     O          -0.516514           
         O8        1.0000    0.06860   0.85100   0.15840   Biso      1.000     O          -0.516514           
         O9        1.0000    0.95090   0.06100   0.16730   Biso      1.000     O          -0.544664           
         O10       1.0000    0.61850   0.74620   0.75750   Biso      1.000     O          -0.605065           
         O11       1.0000    0.56860   0.64900   0.65840   Biso      1.000     O          -0.516514           
         O12       1.0000    0.54910   0.56100   0.33270   Biso      1.000     O          -0.544665           
         O13       1.0000    0.59420   0.59670   0.22120   Biso      1.000     O          -0.526155           
         O14       1.0000    0.63980   0.35100   0.29430   Biso      1.000     O          -0.452967           
         O15       1.0000    0.54620   0.36970   0.18990   Biso      1.000     O          -0.5986560000000001           
         O16       1.0000    0.90580   0.09670   0.27880   Biso      1.000     O          -0.526154           
         O17       1.0000    0.43140   0.35100   0.34160   Biso      1.000     O          -0.516514           
         O18       1.0000    0.62630   0.49490   0.77740   Biso      1.000     O          -0.522455           
         O19       1.0000    0.63950   0.58310   0.88600   Biso      1.000     O          -0.569083           
         O20       1.0000    0.86050   0.08310   0.61400   Biso      1.000     O          -0.569083           
         O21       1.0000    0.88150   0.24620   0.74250   Biso      1.000     O          -0.605065           
         O22       1.0000    0.95380   0.86970   0.31010   Biso      1.000     O          -0.598654           
         O23       1.0000    0.86020   0.85100   0.20570   Biso      1.000     O          -0.452967           
         O24       1.0000    0.13980   0.14900   0.79430   Biso      1.000     O          -0.452967           
         O25       1.0000    0.04620   0.13030   0.68990   Biso      1.000     O          -0.598655           
         O26       1.0000    0.40580   0.40330   0.77880   Biso      1.000     O          -0.526158           
         O27       1.0000    0.45090   0.43900   0.66730   Biso      1.000     O          -0.544667           
         O28       1.0000    0.12630   0.00510   0.27740   Biso      1.000     O          -0.522455           
         O29       1.0000    0.13950   0.91690   0.38600   Biso      1.000     O          -0.569082           
         O30       1.0000    0.38150   0.25380   0.24250   Biso      1.000     O          -0.605066           
         O31       1.0000    0.11850   0.75380   0.25750   Biso      1.000     O          -0.605064           
         O32       1.0000    0.87370   0.99490   0.72260   Biso      1.000     O          -0.522455           
         Zn1       1.0000    0.07056   0.77955   0.36340   Biso      1.000     Zn          0.9902270000000001  
         Zn2       1.0000    0.50990   0.55405   0.72538   Biso      1.000     Zn          0.944961  
         Zn3       1.0000    0.42944   0.27955   0.13660   Biso      1.000     Zn          0.990231  
         Zn4       1.0000    0.99010   0.05405   0.77462   Biso      1.000     Zn          0.94496   
         Zn5       1.0000    0.92944   0.22045   0.63660   Biso      1.000     Zn          0.990232  
         Zn6       1.0000    0.57056   0.72045   0.86340   Biso      1.000     Zn          0.9902340000000001  
         Zn7       1.0000    0.49010   0.44595   0.27462   Biso      1.000     Zn          0.944961  
         Zn8       1.0000    0.00990   0.94595   0.22538   Biso      1.000     Zn          0.94496 