
##########################################################################
#               Crystallographic Information Format file
#               Produced by PyCifRW module
#
#  This is a CIF file.  CIF has been adopted by the International
#  Union of Crystallography as the standard for data archiving and
#  transmission.
#
#  For information on this file format, follow the CIF links at
#  http://www.iucr.org
##########################################################################

data_image0

_cell_length_a                          15.114
_cell_length_b                          8.782
_cell_length_c                          15.345
_cell_angle_alpha                       90
_cell_angle_beta                        95.378
_cell_angle_gamma                       90
_symmetry_space_group_name_H-M          'P 1'
_symmetry_int_tables_number             1
loop_
  _symmetry_equiv_pos_as_xyz
         'x, y, z' 
loop_
  _atom_site_label
  _atom_site_occupancy
  _atom_site_fract_x
  _atom_site_fract_y
  _atom_site_fract_z
  _atom_site_thermal_displace_type
  _atom_site_B_iso_or_equiv
  _atom_site_type_symbol
  _atom_site_charge
         C1        1.0000    0.19817   0.45365   0.87366   Biso      1.000     C          0.08974800000000001           
         C2        1.0000    0.93714   0.61689   0.65975   Biso      1.000     C          0.306765  
         C3        1.0000    0.85430   0.55401   0.67881   Biso      1.000     C          0.076083  
         C4        1.0000    0.80183   0.45365   0.62634   Biso      1.000     C          0.08974800000000001           
         C5        1.0000    0.14570   0.55401   0.82119   Biso      1.000     C          0.076083  
         C6        1.0000    0.82397   0.01474   0.19092   Biso      1.000     C          0.658189  
         C7        1.0000    0.68127   0.10131   0.45771   Biso      1.000     C          0.315706  
         C8        1.0000    0.82397   0.98526   0.69092   Biso      1.000     C          0.658189  
         C9        1.0000    0.19817   0.54635   0.37366   Biso      1.000     C          0.08974800000000001           
         C10       1.0000    0.14570   0.44599   0.32119   Biso      1.000     C          0.076083  
         C11       1.0000    0.74178   0.49549   0.74224   Biso      1.000     C          0.15373299999999998           
         C12       1.0000    0.06286   0.38311   0.34025   Biso      1.000     C          0.306765  
         C13       1.0000    0.18127   0.60131   0.45771   Biso      1.000     C          0.315706  
         C14       1.0000    0.32397   0.51474   0.19092   Biso      1.000     C          0.658189  
         C15       1.0000    0.68127   0.89869   0.95771   Biso      1.000     C          0.315706  
         C16       1.0000    0.75822   0.99549   0.75776   Biso      1.000     C          0.15373299999999998           
         C17       1.0000    0.56286   0.11689   0.84025   Biso      1.000     C          0.306765  
         C18       1.0000    0.64570   0.05401   0.82119   Biso      1.000     C          0.076083  
         C19       1.0000    0.69817   0.95365   0.87366   Biso      1.000     C          0.08974800000000001           
         C20       1.0000    0.75822   0.00451   0.25776   Biso      1.000     C          0.15373299999999998           
         C21       1.0000    0.56286   0.88311   0.34025   Biso      1.000     C          0.306765  
         C22       1.0000    0.25822   0.50451   0.25776   Biso      1.000     C          0.15373399999999998           
         C23       1.0000    0.17603   0.01474   0.30908   Biso      1.000     C          0.658189  
         C24       1.0000    0.31873   0.10131   0.04229   Biso      1.000     C          0.315706  
         C25       1.0000    0.24178   0.00451   0.24224   Biso      1.000     C          0.15373299999999998           
         C26       1.0000    0.06286   0.61689   0.84025   Biso      1.000     C          0.306765  
         C27       1.0000    0.17603   0.98526   0.80908   Biso      1.000     C          0.658189  
         C28       1.0000    0.31873   0.89869   0.54229   Biso      1.000     C          0.315706  
         C29       1.0000    0.24178   0.99549   0.74224   Biso      1.000     C          0.15373399999999998           
         C30       1.0000    0.80183   0.54635   0.12634   Biso      1.000     C          0.08974800000000001           
         C31       1.0000    0.85430   0.44599   0.17881   Biso      1.000     C          0.076083  
         C32       1.0000    0.93714   0.38311   0.15975   Biso      1.000     C          0.306765  
         C33       1.0000    0.74178   0.50451   0.24224   Biso      1.000     C          0.15373399999999998           
         C34       1.0000    0.81873   0.60131   0.04229   Biso      1.000     C          0.315706  
         C35       1.0000    0.67603   0.51474   0.30908   Biso      1.000     C          0.658189  
         C36       1.0000    0.43714   0.11689   0.65975   Biso      1.000     C          0.306765  
         C37       1.0000    0.35430   0.05401   0.67881   Biso      1.000     C          0.076083  
         C38       1.0000    0.30183   0.95365   0.62634   Biso      1.000     C          0.08974800000000001           
         C39       1.0000    0.25822   0.49549   0.75776   Biso      1.000     C          0.15373299999999998           
         C40       1.0000    0.18127   0.39869   0.95771   Biso      1.000     C          0.315706  
         C41       1.0000    0.32397   0.48526   0.69092   Biso      1.000     C          0.658189  
         C42       1.0000    0.67603   0.48526   0.80908   Biso      1.000     C          0.658189  
         C43       1.0000    0.81873   0.39869   0.54229   Biso      1.000     C          0.315706  
         C44       1.0000    0.30183   0.04635   0.12634   Biso      1.000     C          0.08974800000000001           
         C45       1.0000    0.35430   0.94599   0.17881   Biso      1.000     C          0.076083  
         C46       1.0000    0.43714   0.88311   0.15975   Biso      1.000     C          0.306765  
         C47       1.0000    0.64570   0.94599   0.32119   Biso      1.000     C          0.076083  
         C48       1.0000    0.69817   0.04635   0.37366   Biso      1.000     C          0.08974800000000001           
         F1        1.0000    0.84232   0.87895   0.15821   Biso      1.000     F          -0.202184           
         F2        1.0000    0.29537   0.39706   0.62253   Biso      1.000     F          -0.210483           
         F3        1.0000    0.34232   0.62105   0.65821   Biso      1.000     F          -0.202184           
         F4        1.0000    0.90053   0.92495   0.72607   Biso      1.000     F          -0.212596           
         F5        1.0000    0.79537   0.89706   0.62253   Biso      1.000     F          -0.210484           
         F6        1.0000    0.59947   0.42495   0.77393   Biso      1.000     F          -0.212596           
         F7        1.0000    0.70463   0.39706   0.87747   Biso      1.000     F          -0.210483           
         F8        1.0000    0.65768   0.62105   0.84179   Biso      1.000     F          -0.202184           
         F9        1.0000    0.09947   0.92495   0.77393   Biso      1.000     F          -0.212596           
         F10       1.0000    0.40053   0.42495   0.72607   Biso      1.000     F          -0.212596           
         F11       1.0000    0.84232   0.12105   0.65821   Biso      1.000     F          -0.202184           
         F12       1.0000    0.15768   0.12105   0.84179   Biso      1.000     F          -0.202184           
         F13       1.0000    0.20463   0.10294   0.37747   Biso      1.000     F          -0.210483           
         F14       1.0000    0.09947   0.07505   0.27393   Biso      1.000     F          -0.212596           
         F15       1.0000    0.20463   0.89706   0.87747   Biso      1.000     F          -0.210483           
         F16       1.0000    0.79537   0.10294   0.12253   Biso      1.000     F          -0.210483           
         F17       1.0000    0.90053   0.07505   0.22607   Biso      1.000     F          -0.212596           
         F18       1.0000    0.59947   0.57505   0.27393   Biso      1.000     F          -0.212596           
         F19       1.0000    0.40053   0.57505   0.22607   Biso      1.000     F          -0.212596           
         F20       1.0000    0.70463   0.60294   0.37747   Biso      1.000     F          -0.210484           
         F21       1.0000    0.65768   0.37895   0.34179   Biso      1.000     F          -0.202184           
         F22       1.0000    0.29537   0.60294   0.12253   Biso      1.000     F          -0.210483           
         F23       1.0000    0.34232   0.37895   0.15821   Biso      1.000     F          -0.202184           
         F24       1.0000    0.15768   0.87895   0.34179   Biso      1.000     F          -0.202184           
         Li1       1.0000    0.13342   0.25630   0.13834   Biso      1.000     Li          0.744809  
         Li2       1.0000    0.86658   0.74370   0.86166   Biso      1.000     Li          0.744809  
         Li3       1.0000    0.36658   0.75630   0.36166   Biso      1.000     Li          0.744809  
         Li4       1.0000    0.36658   0.24370   0.86166   Biso      1.000     Li          0.744808  
         Li5       1.0000    0.86658   0.25630   0.36166   Biso      1.000     Li          0.744809  
         Li6       1.0000    0.63342   0.24370   0.63834   Biso      1.000     Li          0.744808  
         Li7       1.0000    0.13342   0.74370   0.63834   Biso      1.000     Li          0.744808  
         Li8       1.0000    0.63342   0.75630   0.13834   Biso      1.000     Li          0.744808  
         N1        1.0000    0.50457   0.16405   0.64359   Biso      1.000     N          -0.433774           
         N2        1.0000    0.31513   0.08185   0.75384   Biso      1.000     N          -0.402435           
         N3        1.0000    0.22918   0.91494   0.66785   Biso      1.000     N          -0.439928           
         N4        1.0000    0.81513   0.41815   0.25384   Biso      1.000     N          -0.402435           
         N5        1.0000    0.00457   0.33595   0.14359   Biso      1.000     N          -0.433774           
         N6        1.0000    0.22918   0.08506   0.16785   Biso      1.000     N          -0.439929           
         N7        1.0000    0.33455   0.14274   0.97457   Biso      1.000     N          -0.44363100000000005          
         N8        1.0000    0.50457   0.83595   0.14359   Biso      1.000     N          -0.433774           
         N9        1.0000    0.31513   0.91815   0.25384   Biso      1.000     N          -0.402435           
         N10       1.0000    0.83455   0.64274   0.97457   Biso      1.000     N          -0.44363100000000005          
         N11       1.0000    0.72918   0.58506   0.16785   Biso      1.000     N          -0.439928           
         N12       1.0000    0.33455   0.85726   0.47457   Biso      1.000     N          -0.44363100000000005          
         N13       1.0000    0.18487   0.58185   0.74616   Biso      1.000     N          -0.402435           
         N14       1.0000    0.00457   0.66405   0.64359   Biso      1.000     N          -0.433774           
         N15       1.0000    0.16545   0.35726   0.02543   Biso      1.000     N          -0.44363100000000005          
         N16       1.0000    0.27082   0.41494   0.83215   Biso      1.000     N          -0.439928           
         N17       1.0000    0.68487   0.91815   0.24616   Biso      1.000     N          -0.402435           
         N18       1.0000    0.49543   0.83595   0.35641   Biso      1.000     N          -0.433774           
         N19       1.0000    0.66545   0.14274   0.52543   Biso      1.000     N          -0.44363100000000005          
         N20       1.0000    0.77082   0.91494   0.83215   Biso      1.000     N          -0.439928           
         N21       1.0000    0.66545   0.85726   0.02543   Biso      1.000     N          -0.44363100000000005          
         N22       1.0000    0.81513   0.58185   0.75384   Biso      1.000     N          -0.402436           
         N23       1.0000    0.49543   0.16405   0.85641   Biso      1.000     N          -0.433774           
         N24       1.0000    0.77082   0.08506   0.33215   Biso      1.000     N          -0.439928           
         N25       1.0000    0.18487   0.41815   0.24616   Biso      1.000     N          -0.402435           
         N26       1.0000    0.99543   0.33595   0.35641   Biso      1.000     N          -0.433774           
         N27       1.0000    0.16545   0.64274   0.52543   Biso      1.000     N          -0.44363100000000005          
         N28       1.0000    0.27082   0.58506   0.33215   Biso      1.000     N          -0.439928           
         N29       1.0000    0.99543   0.66405   0.85641   Biso      1.000     N          -0.433774           
         N30       1.0000    0.83455   0.35726   0.47457   Biso      1.000     N          -0.44363100000000005          
         N31       1.0000    0.68487   0.08185   0.74616   Biso      1.000     N          -0.402435           
         N32       1.0000    0.72918   0.41494   0.66785   Biso      1.000     N          -0.439928 