
##########################################################################
#               Crystallographic Information Format file
#               Produced by PyCifRW module
#
#  This is a CIF file.  CIF has been adopted by the International
#  Union of Crystallography as the standard for data archiving and
#  transmission.
#
#  For information on this file format, follow the CIF links at
#  http://www.iucr.org
##########################################################################

data_image0

_cell_length_a                          9.151
_cell_length_b                          9.1671
_cell_length_c                          9.3136
_cell_angle_alpha                       77.93
_cell_angle_beta                        86.22
_cell_angle_gamma                       88.36
_symmetry_space_group_name_H-M          'P 1'
_symmetry_int_tables_number             1
loop_
  _symmetry_equiv_pos_as_xyz
         'x, y, z' 
loop_
  _atom_site_label
  _atom_site_occupancy
  _atom_site_fract_x
  _atom_site_fract_y
  _atom_site_fract_z
  _atom_site_thermal_displace_type
  _atom_site_B_iso_or_equiv
  _atom_site_type_symbol
  _atom_site_charge
         P1        1.0000    0.35318   0.83178   0.85484   Biso      1.000     P          1.637972  
         P2        1.0000    0.18677   0.38342   0.89972   Biso      1.000     P          1.751356  
         P3        1.0000    0.62028   0.37302   0.67772   Biso      1.000     P          1.730152  
         P4        1.0000    0.64682   0.16822   0.14516   Biso      1.000     P          1.637972  
         P5        1.0000    0.81323   0.61658   0.10028   Biso      1.000     P          1.751356  
         P6        1.0000    0.37972   0.62698   0.32228   Biso      1.000     P          1.730152  
         Al1       1.0000    0.43763   0.13241   0.91218   Biso      1.000     Al          1.721538  
         Al2       1.0000    0.62549   0.39612   0.34303   Biso      1.000     Al          1.757976  
         Al3       1.0000    0.84156   0.36817   0.92297   Biso      1.000     Al          1.760627  
         Al4       1.0000    0.56237   0.86759   0.08782   Biso      1.000     Al          1.721538  
         Al5       1.0000    0.37451   0.60388   0.65697   Biso      1.000     Al          1.757976  
         Al6       1.0000    0.15844   0.63183   0.07703   Biso      1.000     Al          1.760627  
         F1        1.0000    0.39181   0.98859   0.08053   Biso      1.000     F          -0.58446  
         F2        1.0000    0.60819   0.01141   0.91947   Biso      1.000     F          -0.58446  
         O1        1.0000    0.20205   0.77869   0.92932   Biso      1.000     O          -0.799731           
         O2        1.0000    0.37479   0.77145   0.71372   Biso      1.000     O          -0.784926           
         O3        1.0000    0.47135   0.76495   0.96224   Biso      1.000     O          -0.811766           
         O4        1.0000    0.35424   0.00190   0.81102   Biso      1.000     O          -0.718947           
         O5        1.0000    0.26667   0.23388   0.92920   Biso      1.000     O          -0.755349           
         O6        1.0000    0.02572   0.35838   0.88155   Biso      1.000     O          -0.834009           
         O7        1.0000    0.20068   0.46139   0.02909   Biso      1.000     O          -0.867727           
         O8        1.0000    0.24597   0.48504   0.75711   Biso      1.000     O          -0.879867           
         O9        1.0000    0.50502   0.25405   0.74141   Biso      1.000     O          -0.787722           
         O10       1.0000    0.55038   0.52905   0.66917   Biso      1.000     O          -0.865919           
         O11       1.0000    0.75404   0.35963   0.76806   Biso      1.000     O          -0.847816           
         O12       1.0000    0.67285   0.35628   0.52322   Biso      1.000     O          -0.821383           
         O13       1.0000    0.79795   0.22131   0.07068   Biso      1.000     O          -0.799731           
         O14       1.0000    0.62521   0.22855   0.28628   Biso      1.000     O          -0.784926           
         O15       1.0000    0.52865   0.23505   0.03776   Biso      1.000     O          -0.811766           
         O16       1.0000    0.64576   0.99810   0.18898   Biso      1.000     O          -0.718947           
         O17       1.0000    0.73333   0.76612   0.07080   Biso      1.000     O          -0.755349           
         O18       1.0000    0.97428   0.64162   0.11845   Biso      1.000     O          -0.834009           
         O19       1.0000    0.79932   0.53861   0.97091   Biso      1.000     O          -0.867727           
         O20       1.0000    0.75403   0.51496   0.24289   Biso      1.000     O          -0.879867           
         O21       1.0000    0.49498   0.74595   0.25859   Biso      1.000     O          -0.787722           
         O22       1.0000    0.44962   0.47095   0.33083   Biso      1.000     O          -0.865919           
         O23       1.0000    0.24596   0.64037   0.23194   Biso      1.000     O          -0.847816           
         O24       1.0000    0.32715   0.64372   0.47678   Biso      1.000     O          -0.821383 