
##########################################################################
#               Crystallographic Information Format file
#               Produced by PyCifRW module
#
#  This is a CIF file.  CIF has been adopted by the International
#  Union of Crystallography as the standard for data archiving and
#  transmission.
#
#  For information on this file format, follow the CIF links at
#  http://www.iucr.org
##########################################################################

data_image0

_cell_length_a                          10.013
_cell_length_b                          11.416
_cell_length_c                          14.914
_cell_angle_alpha                       91.44
_cell_angle_beta                        90
_cell_angle_gamma                       90
_symmetry_space_group_name_H-M          'P 1'
_symmetry_int_tables_number             1
loop_
  _symmetry_equiv_pos_as_xyz
         'x, y, z' 
loop_
  _atom_site_label
  _atom_site_occupancy
  _atom_site_fract_x
  _atom_site_fract_y
  _atom_site_fract_z
  _atom_site_thermal_displace_type
  _atom_site_B_iso_or_equiv
  _atom_site_type_symbol
  _atom_site_charge
         C1        1.0000    0.14870   0.44120   0.67450   Biso      1.000     C          0.559647  
         C2        1.0000    0.64870   0.05880   0.82550   Biso      1.000     C          0.559647  
         C3        1.0000    0.73410   0.43940   0.56910   Biso      1.000     C          0.564754  
         C4        1.0000    0.71740   0.07760   0.55780   Biso      1.000     C          0.563975  
         C5        1.0000    0.52680   0.48100   0.79460   Biso      1.000     C          0.5652510000000001  
         C6        1.0000    0.02680   0.01900   0.70540   Biso      1.000     C          0.5652510000000001  
         C7        1.0000    0.40790   0.74060   0.96690   Biso      1.000     C          0.565807  
         C8        1.0000    0.47320   0.51900   0.20540   Biso      1.000     C          0.5652510000000001  
         C9        1.0000    0.59210   0.25940   0.03310   Biso      1.000     C          0.565807  
         C10       1.0000    0.97320   0.98100   0.29460   Biso      1.000     C          0.5652510000000001  
         C11       1.0000    0.85130   0.55880   0.32550   Biso      1.000     C          0.559647  
         C12       1.0000    0.90790   0.75940   0.53310   Biso      1.000     C          0.565807  
         C13       1.0000    0.23410   0.06060   0.93090   Biso      1.000     C          0.564754  
         C14       1.0000    0.78260   0.57760   0.05780   Biso      1.000     C          0.563975  
         C15       1.0000    0.21740   0.42240   0.94220   Biso      1.000     C          0.563975  
         C16       1.0000    0.28260   0.92240   0.44220   Biso      1.000     C          0.563975  
         C17       1.0000    0.15870   0.67810   0.16890   Biso      1.000     C          0.564153  
         C18       1.0000    0.35130   0.94120   0.17450   Biso      1.000     C          0.559647  
         C19       1.0000    0.26590   0.56060   0.43090   Biso      1.000     C          0.564754  
         C20       1.0000    0.84130   0.32190   0.83110   Biso      1.000     C          0.564154  
         C21       1.0000    0.65870   0.82190   0.33110   Biso      1.000     C          0.564154  
         C22       1.0000    0.09210   0.24060   0.46690   Biso      1.000     C          0.565807  
         C23       1.0000    0.76590   0.93940   0.06910   Biso      1.000     C          0.564754  
         C24       1.0000    0.34130   0.17810   0.66890   Biso      1.000     C          0.564154  
         H1        1.0000    0.64620   0.30300   0.07200   Biso      1.000     H          0.026175  
         H2        1.0000    0.77430   0.34820   0.86980   Biso      1.000     H          0.02638   
         H3        1.0000    0.27430   0.15180   0.63020   Biso      1.000     H          0.02638   
         H4        1.0000    0.78120   0.53560   0.28820   Biso      1.000     H          0.027502  
         H5        1.0000    0.95190   0.02360   0.24420   Biso      1.000     H          0.031585  
         H6        1.0000    0.35380   0.69700   0.92800   Biso      1.000     H          0.026175  
         H7        1.0000    0.71880   0.03560   0.78820   Biso      1.000     H          0.027502  
         H8        1.0000    0.21880   0.46440   0.71180   Biso      1.000     H          0.027502  
         H9        1.0000    0.45190   0.47640   0.25580   Biso      1.000     H          0.031585  
         H10       1.0000    0.21700   0.99470   0.96440   Biso      1.000     H          0.02541   
         H11       1.0000    0.37280   0.94070   0.44780   Biso      1.000     H          0.033007  
         H12       1.0000    0.28300   0.49470   0.46440   Biso      1.000     H          0.02541   
         H13       1.0000    0.87280   0.55930   0.05220   Biso      1.000     H          0.033007  
         H14       1.0000    0.54810   0.52360   0.74420   Biso      1.000     H          0.031585  
         H15       1.0000    0.85380   0.80300   0.57200   Biso      1.000     H          0.026175  
         H16       1.0000    0.22570   0.65180   0.13020   Biso      1.000     H          0.02638   
         H17       1.0000    0.72570   0.84820   0.36980   Biso      1.000     H          0.02638   
         H18       1.0000    0.62720   0.05930   0.55220   Biso      1.000     H          0.033007  
         H19       1.0000    0.78300   0.00530   0.03560   Biso      1.000     H          0.02541   
         H20       1.0000    0.12720   0.44070   0.94780   Biso      1.000     H          0.033007  
         H21       1.0000    0.71700   0.50530   0.53560   Biso      1.000     H          0.02541   
         H22       1.0000    0.04810   0.97640   0.75580   Biso      1.000     H          0.031585  
         H23       1.0000    0.28120   0.96440   0.21180   Biso      1.000     H          0.027502  
         H24       1.0000    0.14620   0.19700   0.42800   Biso      1.000     H          0.026175  
         Mg1       1.0000    0.00000   0.00000   0.50000   Biso      1.000     Mg          1.338135  
         Mg2       1.0000    0.00000   0.50000   0.50000   Biso      1.000     Mg          1.351812  
         Mg3       1.0000    0.50000   0.00000   0.00000   Biso      1.000     Mg          1.351812  
         Mg4       1.0000    0.37882   0.73888   0.30472   Biso      1.000     Mg          1.3300610000000002  
         Mg5       1.0000    0.42683   0.24489   0.86472   Biso      1.000     Mg          1.3433950000000001  
         Mg6       1.0000    0.12118   0.23888   0.80472   Biso      1.000     Mg          1.3300610000000002  
         Mg7       1.0000    0.92683   0.25511   0.63528   Biso      1.000     Mg          1.3433950000000001  
         Mg8       1.0000    0.62118   0.26112   0.69528   Biso      1.000     Mg          1.3300610000000002  
         Mg9       1.0000    0.07317   0.74489   0.36472   Biso      1.000     Mg          1.3433950000000001  
         Mg10      1.0000    0.50000   0.50000   0.00000   Biso      1.000     Mg          1.338135  
         Mg11      1.0000    0.87882   0.76112   0.19528   Biso      1.000     Mg          1.3300610000000002  
         Mg12      1.0000    0.57317   0.75511   0.13528   Biso      1.000     Mg          1.3433950000000001  
         O1        1.0000    0.12360   0.50390   0.61040   Biso      1.000     O          -0.566925           
         O2        1.0000    0.09130   0.34800   0.45800   Biso      1.000     O          -0.5810850000000001           
         O3        1.0000    0.59130   0.15200   0.04200   Biso      1.000     O          -0.5810850000000001           
         O4        1.0000    0.25030   0.84070   0.38507   Biso      1.000     O          -0.687771           
         O5        1.0000    0.41280   0.84740   0.19401   Biso      1.000     O          -0.684847           
         O6        1.0000    0.58720   0.15260   0.80599   Biso      1.000     O          -0.684847           
         O7        1.0000    0.98780   0.03690   0.36565   Biso      1.000     O          -0.573759           
         O8        1.0000    0.01570   0.12960   0.71640   Biso      1.000     O          -0.6930850000000001           
         O9        1.0000    0.91280   0.65260   0.30599   Biso      1.000     O          -0.684847           
         O10       1.0000    0.54650   0.80650   0.36425   Biso      1.000     O          -0.579453           
         O11       1.0000    0.69090   0.80500   0.24914   Biso      1.000     O          -0.6819890000000001           
         O12       1.0000    0.48430   0.62960   0.21640   Biso      1.000     O          -0.6930850000000001           
         O13       1.0000    0.40870   0.84800   0.95800   Biso      1.000     O          -0.5810850000000001           
         O14       1.0000    0.08720   0.34740   0.69401   Biso      1.000     O          -0.684847           
         O15       1.0000    0.80910   0.30500   0.74914   Biso      1.000     O          -0.6819890000000001           
         O16       1.0000    0.79640   0.02150   0.50970   Biso      1.000     O          -0.570442           
         O17       1.0000    0.86210   0.89650   0.10865   Biso      1.000     O          -0.583412           
         O18       1.0000    0.36210   0.60350   0.39135   Biso      1.000     O          -0.583412           
         O19       1.0000    0.47450   0.68430   0.02453   Biso      1.000     O          -0.688509           
         O20       1.0000    0.04650   0.69350   0.13575   Biso      1.000     O          -0.579453           
         O21       1.0000    0.95350   0.30650   0.86425   Biso      1.000     O          -0.579453           
         O22       1.0000    0.13790   0.10350   0.89135   Biso      1.000     O          -0.583412           
         O23       1.0000    0.37640   0.00390   0.11040   Biso      1.000     O          -0.566925           
         O24       1.0000    0.98430   0.87040   0.28360   Biso      1.000     O          -0.6930850000000001           
         O25       1.0000    0.90870   0.65200   0.54200   Biso      1.000     O          -0.5810850000000001           
         O26       1.0000    0.29640   0.47850   0.99030   Biso      1.000     O          -0.570442           
         O27       1.0000    0.97450   0.81570   0.47547   Biso      1.000     O          -0.6885100000000001           
         O28       1.0000    0.48780   0.46310   0.13435   Biso      1.000     O          -0.573759           
         O29       1.0000    0.85390   0.40260   0.56965   Biso      1.000     O          -0.6807989999999999           
         O30       1.0000    0.51570   0.37040   0.78360   Biso      1.000     O          -0.6930850000000001           
         O31       1.0000    0.75030   0.65930   0.11493   Biso      1.000     O          -0.687771           
         O32       1.0000    0.01220   0.96310   0.63435   Biso      1.000     O          -0.573759           
         O33       1.0000    0.45350   0.19350   0.63575   Biso      1.000     O          -0.579453           
         O34       1.0000    0.70360   0.52150   0.00970   Biso      1.000     O          -0.570442           
         O35       1.0000    0.30910   0.19500   0.75086   Biso      1.000     O          -0.68199  
         O36       1.0000    0.87640   0.49610   0.38960   Biso      1.000     O          -0.566925           
         O37       1.0000    0.35390   0.09740   0.93035   Biso      1.000     O          -0.6807979999999999           
         O38       1.0000    0.52550   0.31570   0.97547   Biso      1.000     O          -0.688509           
         O39       1.0000    0.02550   0.18430   0.52453   Biso      1.000     O          -0.688509           
         O40       1.0000    0.20360   0.97850   0.49030   Biso      1.000     O          -0.570442           
         O41       1.0000    0.19090   0.69500   0.25086   Biso      1.000     O          -0.6819890000000001           
         O42       1.0000    0.74970   0.15930   0.61493   Biso      1.000     O          -0.687771           
         O43       1.0000    0.14610   0.59740   0.43035   Biso      1.000     O          -0.6807979999999999           
         O44       1.0000    0.24970   0.34070   0.88507   Biso      1.000     O          -0.687771           
         O45       1.0000    0.51220   0.53690   0.86565   Biso      1.000     O          -0.573759           
         O46       1.0000    0.62360   0.99610   0.88960   Biso      1.000     O          -0.566925           
         O47       1.0000    0.63790   0.39650   0.60865   Biso      1.000     O          -0.583412           
         O48       1.0000    0.64610   0.90260   0.06965   Biso      1.000     O          -0.6807989999999999 