
##########################################################################
#               Crystallographic Information Format file
#               Produced by PyCifRW module
#
#  This is a CIF file.  CIF has been adopted by the International
#  Union of Crystallography as the standard for data archiving and
#  transmission.
#
#  For information on this file format, follow the CIF links at
#  http://www.iucr.org
##########################################################################

data_image0

_cell_length_a                          10.5903
_cell_length_b                          13.362
_cell_length_c                          20.907
_cell_angle_alpha                       90
_cell_angle_beta                        90
_cell_angle_gamma                       113.346
_symmetry_space_group_name_H-M          'P 1'
_symmetry_int_tables_number             1
loop_
  _symmetry_equiv_pos_as_xyz
         'x, y, z' 
loop_
  _atom_site_label
  _atom_site_occupancy
  _atom_site_fract_x
  _atom_site_fract_y
  _atom_site_fract_z
  _atom_site_thermal_displace_type
  _atom_site_B_iso_or_equiv
  _atom_site_type_symbol
  _atom_site_charge
         C1        1.0000    0.94020   0.02780   0.12400   Biso      1.000     C          -0.163242           
         C2        1.0000    0.72850   0.57760   0.23180   Biso      1.000     C          0.070452  
         C3        1.0000    0.62750   0.60380   0.25970   Biso      1.000     C          -0.138002           
         C4        1.0000    0.51260   0.59820   0.22660   Biso      1.000     C          -0.117094           
         C5        1.0000    0.49490   0.56940   0.16260   Biso      1.000     C          -0.028413           
         C6        1.0000    0.36790   0.56680   0.12770   Biso      1.000     C          0.590068  
         C7        1.0000    0.46160   0.63800   0.93320   Biso      1.000     C          0.087767  
         C8        1.0000    0.53790   0.63880   0.84000   Biso      1.000     C          -0.035861           
         C9        1.0000    0.47950   0.71100   0.84010   Biso      1.000     C          -0.145028           
         C10       1.0000    0.35610   0.77540   0.92700   Biso      1.000     C          -0.156127           
         C11       1.0000    0.30910   0.82960   0.87610   Biso      1.000     C          0.108158  
         C12       1.0000    0.40130   0.92920   0.85130   Biso      1.000     C          -0.165735           
         C13       1.0000    0.71200   0.55100   0.16690   Biso      1.000     C          -0.190247           
         C14       1.0000    0.35880   0.97740   0.80080   Biso      1.000     C          -0.144817           
         C15       1.0000    0.13840   0.83540   0.80370   Biso      1.000     C          -0.134356           
         C16       1.0000    0.17660   0.78200   0.85300   Biso      1.000     C          -0.142799           
         C17       1.0000    0.00180   0.28900   0.56160   Biso      1.000     C          0.106944  
         C18       1.0000    0.79490   0.20280   0.59440   Biso      1.000     C          -0.04832  
         C19       1.0000    0.85110   0.12660   0.59230   Biso      1.000     C          -0.15313  
         C20       1.0000    0.08190   0.13960   0.55920   Biso      1.000     C          -0.169286           
         C21       1.0000    0.11640   0.08500   0.61900   Biso      1.000     C          0.099835  
         C22       1.0000    0.20440   0.14760   0.66420   Biso      1.000     C          -0.138616           
         C23       1.0000    0.23150   0.09600   0.71700   Biso      1.000     C          -0.130153           
         C24       1.0000    0.18070   0.98500   0.72220   Biso      1.000     C          0.073137  
         C25       1.0000    0.09430   0.92460   0.67570   Biso      1.000     C          -0.133776           
         C26       1.0000    0.22520   0.93320   0.77580   Biso      1.000     C          0.060897  
         C27       1.0000    0.05980   0.97220   0.62400   Biso      1.000     C          -0.163239           
         C28       1.0000    0.59820   0.54480   0.13180   Biso      1.000     C          -0.048999           
         C29       1.0000    0.90570   0.07540   0.17570   Biso      1.000     C          -0.133782           
         C30       1.0000    0.91810   0.86040   0.05920   Biso      1.000     C          -0.169286           
         C31       1.0000    0.14890   0.87340   0.09230   Biso      1.000     C          -0.153138           
         C32       1.0000    0.20510   0.79720   0.09440   Biso      1.000     C          -0.048311           
         C33       1.0000    0.99820   0.71100   0.06160   Biso      1.000     C          0.106944  
         C34       1.0000    0.82340   0.21800   0.35300   Biso      1.000     C          -0.142802           
         C35       1.0000    0.86160   0.16460   0.30370   Biso      1.000     C          -0.134356           
         C36       1.0000    0.77480   0.06680   0.27580   Biso      1.000     C          0.060897  
         C37       1.0000    0.64120   0.02260   0.30080   Biso      1.000     C          -0.144817           
         C38       1.0000    0.59870   0.07080   0.35130   Biso      1.000     C          -0.165735           
         C39       1.0000    0.69090   0.17040   0.37610   Biso      1.000     C          0.108161  
         C40       1.0000    0.64390   0.22460   0.42700   Biso      1.000     C          -0.156127           
         C41       1.0000    0.58310   0.51080   0.06270   Biso      1.000     C          0.570822  
         C42       1.0000    0.52050   0.28900   0.34010   Biso      1.000     C          -0.145061           
         C43       1.0000    0.53840   0.36200   0.43320   Biso      1.000     C          0.087767  
         C44       1.0000    0.63210   0.43320   0.62770   Biso      1.000     C          0.590068  
         C45       1.0000    0.50510   0.43060   0.66260   Biso      1.000     C          -0.028414           
         C46       1.0000    0.48740   0.40180   0.72660   Biso      1.000     C          -0.117095           
         C47       1.0000    0.37250   0.39620   0.75970   Biso      1.000     C          -0.138003           
         C48       1.0000    0.27150   0.42240   0.73180   Biso      1.000     C          0.070456  
         C49       1.0000    0.28800   0.44900   0.66690   Biso      1.000     C          -0.190247           
         C50       1.0000    0.40180   0.45520   0.63180   Biso      1.000     C          -0.048999           
         C51       1.0000    0.41690   0.48920   0.56270   Biso      1.000     C          0.570822  
         C52       1.0000    0.76850   0.90400   0.21700   Biso      1.000     C          -0.130154           
         C53       1.0000    0.81930   0.01500   0.22220   Biso      1.000     C          0.073146  
         C54       1.0000    0.46210   0.36120   0.34000   Biso      1.000     C          -0.035828           
         C55       1.0000    0.07230   0.48920   0.93730   Biso      1.000     C          0.570297  
         C56       1.0000    0.05340   0.45520   0.86820   Biso      1.000     C          -0.048964           
         C57       1.0000    0.16100   0.44900   0.83310   Biso      1.000     C          -0.18983  
         C58       1.0000    0.97630   0.60380   0.24030   Biso      1.000     C          -0.135927           
         C59       1.0000    0.08560   0.59820   0.27340   Biso      1.000     C          -0.118654           
         C60       1.0000    0.07450   0.56940   0.33740   Biso      1.000     C          -0.027913           
         C61       1.0000    0.19890   0.56680   0.37230   Biso      1.000     C          0.59044   
         C62       1.0000    0.17640   0.63800   0.56680   Biso      1.000     C          0.087929  
         C63       1.0000    0.10090   0.63880   0.66000   Biso      1.000     C          -0.037568           
         C64       1.0000    0.23150   0.71100   0.65990   Biso      1.000     C          -0.143757           
         C65       1.0000    0.41930   0.77540   0.57300   Biso      1.000     C          -0.156102           
         C66       1.0000    0.52050   0.82960   0.62390   Biso      1.000     C          0.107324  
         C67       1.0000    0.52790   0.92920   0.64870   Biso      1.000     C          -0.165685           
         C68       1.0000    0.61860   0.97740   0.69920   Biso      1.000     C          -0.144466           
         C69       1.0000    0.84910   0.57760   0.26820   Biso      1.000     C          0.070706  
         C70       1.0000    0.70800   0.93320   0.72420   Biso      1.000     C          0.060732  
         C71       1.0000    0.60540   0.78200   0.64700   Biso      1.000     C          -0.141558           
         C72       1.0000    0.28720   0.28900   0.93840   Biso      1.000     C          0.107685  
         C73       1.0000    0.40790   0.20280   0.90560   Biso      1.000     C          -0.050276           
         C74       1.0000    0.27550   0.12660   0.90770   Biso      1.000     C          -0.1533   
         C75       1.0000    0.05770   0.13960   0.94080   Biso      1.000     C          -0.168972           
         C76       1.0000    0.96860   0.08500   0.88100   Biso      1.000     C          0.099443  
         C77       1.0000    0.94320   0.14760   0.83580   Biso      1.000     C          -0.140991           
         C78       1.0000    0.86450   0.09600   0.78300   Biso      1.000     C          -0.129104           
         C79       1.0000    0.80430   0.98500   0.77780   Biso      1.000     C          0.073123  
         C80       1.0000    0.83030   0.92460   0.82430   Biso      1.000     C          -0.13308  
         C81       1.0000    0.91240   0.97220   0.87600   Biso      1.000     C          -0.16339  
         C82       1.0000    0.69700   0.83540   0.69630   Biso      1.000     C          -0.134572           
         C83       1.0000    0.83900   0.55100   0.33310   Biso      1.000     C          -0.18983  
         C84       1.0000    0.94660   0.54480   0.36820   Biso      1.000     C          -0.048964           
         C85       1.0000    0.92770   0.51080   0.43730   Biso      1.000     C          0.570297  
         C86       1.0000    0.15090   0.42240   0.76820   Biso      1.000     C          0.070704  
         C87       1.0000    0.02370   0.39620   0.74030   Biso      1.000     C          -0.135924           
         C88       1.0000    0.91440   0.40180   0.77340   Biso      1.000     C          -0.118655           
         C89       1.0000    0.92550   0.43060   0.83740   Biso      1.000     C          -0.027913           
         C90       1.0000    0.80110   0.43320   0.87230   Biso      1.000     C          0.59044   
         C91       1.0000    0.82360   0.36200   0.06680   Biso      1.000     C          0.087929  
         C92       1.0000    0.89910   0.36120   0.16000   Biso      1.000     C          -0.037568           
         C93       1.0000    0.76850   0.28900   0.15990   Biso      1.000     C          -0.143757           
         C94       1.0000    0.58070   0.22460   0.07300   Biso      1.000     C          -0.156102           
         C95       1.0000    0.47950   0.17040   0.12390   Biso      1.000     C          0.107324  
         C96       1.0000    0.47210   0.07080   0.14870   Biso      1.000     C          -0.165685           
         C97       1.0000    0.38140   0.02260   0.19920   Biso      1.000     C          -0.144466           
         C98       1.0000    0.29200   0.06680   0.22420   Biso      1.000     C          0.060732  
         C99       1.0000    0.30300   0.16460   0.19630   Biso      1.000     C          -0.134572           
         C100      1.0000    0.39460   0.21800   0.14700   Biso      1.000     C          -0.141558           
         C101      1.0000    0.71280   0.71100   0.43840   Biso      1.000     C          0.107685  
         C102      1.0000    0.59210   0.79720   0.40560   Biso      1.000     C          -0.050276           
         C103      1.0000    0.72450   0.87340   0.40770   Biso      1.000     C          -0.1533   
         C104      1.0000    0.94230   0.86040   0.44080   Biso      1.000     C          -0.168972           
         C105      1.0000    0.03140   0.91500   0.38100   Biso      1.000     C          0.099443  
         C106      1.0000    0.05680   0.85240   0.33580   Biso      1.000     C          -0.140991           
         C107      1.0000    0.13550   0.90400   0.28300   Biso      1.000     C          -0.129104           
         C108      1.0000    0.19570   0.01500   0.27780   Biso      1.000     C          0.073123  
         C109      1.0000    0.16970   0.07540   0.32430   Biso      1.000     C          -0.13308  
         C110      1.0000    0.08760   0.02780   0.37600   Biso      1.000     C          -0.16339  
         C111      1.0000    0.88360   0.91500   0.11900   Biso      1.000     C          0.099835  
         C112      1.0000    0.79560   0.85240   0.16420   Biso      1.000     C          -0.138616           
         Cd1       1.0000    0.40392   0.53520   0.43566   Biso      1.000     Cd          0.844415  
         Cd2       1.0000    0.59608   0.46480   0.93566   Biso      1.000     Cd          0.844415  
         Cd3       1.0000    0.13128   0.53520   0.06434   Biso      1.000     Cd          0.845213  
         Cd4       1.0000    0.86872   0.46480   0.56434   Biso      1.000     Cd          0.845213  
         H1        1.0000    0.79150   0.84900   0.82110   Biso      1.000     H          0.108244  
         H2        1.0000    0.78090   0.53680   0.14620   Biso      1.000     H          0.111735  
         H3        1.0000    0.63730   0.62580   0.30220   Biso      1.000     H          0.103245  
         H4        1.0000    0.44540   0.61400   0.24760   Biso      1.000     H          0.117458  
         H5        1.0000    0.93000   0.92960   0.90710   Biso      1.000     H          0.113712  
         H6        1.0000    0.57930   0.62280   0.80440   Biso      1.000     H          0.119194  
         H7        1.0000    0.47490   0.75400   0.80590   Biso      1.000     H          0.123071  
         H8        1.0000    0.27740   0.72860   0.95180   Biso      1.000     H          0.12669   
         H9        1.0000    0.41790   0.83020   0.95560   Biso      1.000     H          0.118039  
         H10       1.0000    0.42200   0.04160   0.78310   Biso      1.000     H          0.109558  
         H11       1.0000    0.00040   0.07040   0.09290   Biso      1.000     H          0.113319  
         H12       1.0000    0.04860   0.80320   0.78850   Biso      1.000     H          0.112354  
         H13       1.0000    0.11440   0.71640   0.86960   Biso      1.000     H          0.134954  
         H14       1.0000    0.08300   0.34320   0.54700   Biso      1.000     H          0.117468  
         H15       1.0000    0.70480   0.18780   0.60660   Biso      1.000     H          0.114348  
         H16       1.0000    0.81050   0.05300   0.60270   Biso      1.000     H          0.129826  
         H17       1.0000    0.04710   0.08540   0.52560   Biso      1.000     H          0.104536  
         H18       1.0000    0.16630   0.19640   0.54370   Biso      1.000     H          0.134361  
         H19       1.0000    0.48950   0.96280   0.86810   Biso      1.000     H          0.123953  
         H20       1.0000    0.94250   0.15100   0.17890   Biso      1.000     H          0.108617  
         H21       1.0000    0.75450   0.77700   0.15990   Biso      1.000     H          0.117235  
         H22       1.0000    0.24550   0.22300   0.65990   Biso      1.000     H          0.117235  
         H23       1.0000    0.21910   0.46320   0.64620   Biso      1.000     H          0.111735  
         H24       1.0000    0.36270   0.37420   0.80220   Biso      1.000     H          0.103246  
         H25       1.0000    0.55460   0.38600   0.74760   Biso      1.000     H          0.117458  
         H26       1.0000    0.56010   0.37840   0.47610   Biso      1.000     H          0.107165  
         H27       1.0000    0.42070   0.37720   0.30440   Biso      1.000     H          0.119192  
         H28       1.0000    0.52510   0.24600   0.30590   Biso      1.000     H          0.123073  
         H29       1.0000    0.72260   0.27140   0.45180   Biso      1.000     H          0.12669   
         H30       1.0000    0.58210   0.16980   0.45560   Biso      1.000     H          0.118039  
         H31       1.0000    0.51050   0.03720   0.36810   Biso      1.000     H          0.123953  
         H32       1.0000    0.57800   0.95840   0.28310   Biso      1.000     H          0.109558  
         H33       1.0000    0.95140   0.19680   0.28850   Biso      1.000     H          0.112354  
         H34       1.0000    0.88560   0.28360   0.36960   Biso      1.000     H          0.134954  
         H35       1.0000    0.91700   0.65680   0.04700   Biso      1.000     H          0.117468  
         H36       1.0000    0.29520   0.81220   0.10660   Biso      1.000     H          0.114347  
         H37       1.0000    0.18950   0.94700   0.10270   Biso      1.000     H          0.129826  
         H38       1.0000    0.95290   0.91460   0.02560   Biso      1.000     H          0.104536  
         H39       1.0000    0.83370   0.80360   0.04370   Biso      1.000     H          0.134361  
         H40       1.0000    0.71410   0.86160   0.24980   Biso      1.000     H          0.104592  
         H41       1.0000    0.28590   0.13840   0.74980   Biso      1.000     H          0.104592  
         H42       1.0000    0.43990   0.62160   0.97610   Biso      1.000     H          0.107165  
         H43       1.0000    0.99960   0.92960   0.59290   Biso      1.000     H          0.113319  
         H44       1.0000    0.98850   0.62580   0.19780   Biso      1.000     H          0.102183  
         H45       1.0000    0.16860   0.61400   0.25240   Biso      1.000     H          0.117479  
         H46       1.0000    0.18170   0.62160   0.52390   Biso      1.000     H          0.107321  
         H47       1.0000    0.04350   0.62280   0.69560   Biso      1.000     H          0.119679  
         H48       1.0000    0.27910   0.75400   0.69410   Biso      1.000     H          0.123258  
         H49       1.0000    0.45120   0.72860   0.54820   Biso      1.000     H          0.126976  
         H50       1.0000    0.41230   0.83020   0.54440   Biso      1.000     H          0.11812   
         H51       1.0000    0.47330   0.96280   0.63190   Biso      1.000     H          0.124366  
         H52       1.0000    0.75590   0.53680   0.35380   Biso      1.000     H          0.111261  
         H53       1.0000    0.61960   0.04160   0.71690   Biso      1.000     H          0.109008  
         H54       1.0000    0.60200   0.71640   0.63040   Biso      1.000     H          0.134719  
         H55       1.0000    0.26020   0.34320   0.95300   Biso      1.000     H          0.11733   
         H56       1.0000    0.48300   0.18780   0.89340   Biso      1.000     H          0.115688  
         H57       1.0000    0.05750   0.84900   0.67890   Biso      1.000     H          0.108617  
         H58       1.0000    0.03830   0.08540   0.97440   Biso      1.000     H          0.104307  
         H59       1.0000    0.03010   0.19640   0.95630   Biso      1.000     H          0.134784  
         H60       1.0000    0.97750   0.22300   0.84010   Biso      1.000     H          0.118719  
         H61       1.0000    0.85250   0.13840   0.75020   Biso      1.000     H          0.103956  
         H62       1.0000    0.75460   0.80320   0.71150   Biso      1.000     H          0.112317  
         H63       1.0000    0.07000   0.07040   0.40710   Biso      1.000     H          0.113712  
         H64       1.0000    0.24250   0.05300   0.89730   Biso      1.000     H          0.130146  
         H65       1.0000    0.14750   0.86160   0.25020   Biso      1.000     H          0.103956  
         H66       1.0000    0.20850   0.15100   0.32110   Biso      1.000     H          0.108244  
         H67       1.0000    0.24410   0.46320   0.85380   Biso      1.000     H          0.111261  
         H68       1.0000    0.01150   0.37420   0.69780   Biso      1.000     H          0.102183  
         H69       1.0000    0.83140   0.38600   0.75240   Biso      1.000     H          0.117479  
         H70       1.0000    0.81830   0.37840   0.02390   Biso      1.000     H          0.107321  
         H71       1.0000    0.95650   0.37720   0.19560   Biso      1.000     H          0.119679  
         H72       1.0000    0.54880   0.27140   0.04820   Biso      1.000     H          0.126976  
         H73       1.0000    0.58770   0.16980   0.04440   Biso      1.000     H          0.11812   
         H74       1.0000    0.52670   0.03720   0.13190   Biso      1.000     H          0.124366  
         H75       1.0000    0.72090   0.24600   0.19410   Biso      1.000     H          0.123258  
         H76       1.0000    0.24540   0.19680   0.21150   Biso      1.000     H          0.112317  
         H77       1.0000    0.02250   0.77700   0.34010   Biso      1.000     H          0.118719  
         H78       1.0000    0.38040   0.95840   0.21690   Biso      1.000     H          0.109008  
         H79       1.0000    0.96170   0.91460   0.47440   Biso      1.000     H          0.104307  
         H80       1.0000    0.75750   0.94700   0.39730   Biso      1.000     H          0.130146  
         H81       1.0000    0.96990   0.80360   0.45630   Biso      1.000     H          0.134784  
         H82       1.0000    0.73980   0.65680   0.45300   Biso      1.000     H          0.11733   
         H83       1.0000    0.39800   0.28360   0.13040   Biso      1.000     H          0.134719  
         H84       1.0000    0.51700   0.81220   0.39340   Biso      1.000     H          0.115688  
         N1        1.0000    0.20290   0.18640   0.92940   Biso      1.000     N          0.086298  
         N2        1.0000    0.71760   0.29020   0.09940   Biso      1.000     N          0.073908  
         N3        1.0000    0.41640   0.30500   0.92370   Biso      1.000     N          -0.289722           
         N4        1.0000    0.28240   0.70980   0.59940   Biso      1.000     N          0.073908  
         N5        1.0000    0.06280   0.59220   0.60170   Biso      1.000     N          -0.27763  
         N6        1.0000    0.79710   0.81360   0.42940   Biso      1.000     N          0.086298  
         N7        1.0000    0.58360   0.69500   0.42370   Biso      1.000     N          -0.289722           
         N8        1.0000    0.93720   0.40780   0.10170   Biso      1.000     N          -0.27763  
         N9        1.0000    0.42740   0.70980   0.90060   Biso      1.000     N          0.075104  
         N10       1.0000    0.88860   0.30500   0.57630   Biso      1.000     N          -0.290027           
         N11       1.0000    0.52940   0.59220   0.89830   Biso      1.000     N          -0.277429           
         N12       1.0000    0.01650   0.81360   0.07060   Biso      1.000     N          0.086766  
         N13       1.0000    0.11140   0.69500   0.07630   Biso      1.000     N          -0.290028           
         N14       1.0000    0.57260   0.29020   0.40060   Biso      1.000     N          0.075107  
         N15       1.0000    0.47060   0.40780   0.39830   Biso      1.000     N          -0.277433           
         N16       1.0000    0.98350   0.18640   0.57060   Biso      1.000     N          0.086766  
         O1        1.0000    0.98650   0.45520   0.45882   Biso      1.000     O          -0.552791           
         O2        1.0000    0.84880   0.54080   0.47040   Biso      1.000     O          -0.572759           
         O3        1.0000    0.75460   0.50060   0.85400   Biso      1.000     O          -0.558139           
         O4        1.0000    0.74950   0.36900   0.91750   Biso      1.000     O          -0.591166           
         O5        1.0000    0.01350   0.54480   0.95882   Biso      1.000     O          -0.552791           
         O6        1.0000    0.15120   0.45920   0.97040   Biso      1.000     O          -0.572759           
         O7        1.0000    0.25400   0.49940   0.14600   Biso      1.000     O          -0.55831  
         O8        1.0000    0.69200   0.54080   0.02960   Biso      1.000     O          -0.572758           
         O9        1.0000    0.46870   0.45520   0.04118   Biso      1.000     O          -0.55303  
         O10       1.0000    0.74600   0.50060   0.64600   Biso      1.000     O          -0.55831  
         O11       1.0000    0.61950   0.36900   0.58250   Biso      1.000     O          -0.590881           
         O12       1.0000    0.53130   0.54480   0.54118   Biso      1.000     O          -0.55303  
         O13       1.0000    0.30800   0.45920   0.52960   Biso      1.000     O          -0.572758           
         O14       1.0000    0.25050   0.63100   0.41750   Biso      1.000     O          -0.591166           
         O15       1.0000    0.38050   0.63100   0.08250   Biso      1.000     O          -0.590881           
         O16       1.0000    0.24540   0.49940   0.35400   Biso      1.000     O          -0.558139 