
##########################################################################
#               Crystallographic Information Format file
#               Produced by PyCifRW module
#
#  This is a CIF file.  CIF has been adopted by the International
#  Union of Crystallography as the standard for data archiving and
#  transmission.
#
#  For information on this file format, follow the CIF links at
#  http://www.iucr.org
##########################################################################

data_image0

_cell_length_a                          8.0154
_cell_length_b                          30.175
_cell_length_c                          15.322
_cell_angle_alpha                       90
_cell_angle_beta                        90
_cell_angle_gamma                       90
_symmetry_space_group_name_H-M          'P 1'
_symmetry_int_tables_number             1
loop_
  _symmetry_equiv_pos_as_xyz
         'x, y, z' 
loop_
  _atom_site_label
  _atom_site_occupancy
  _atom_site_fract_x
  _atom_site_fract_y
  _atom_site_fract_z
  _atom_site_thermal_displace_type
  _atom_site_B_iso_or_equiv
  _atom_site_type_symbol
  _atom_site_charge
         C1        1.0000    0.90740   0.51950   0.39980   Biso      1.000     C          -0.067973           
         C2        1.0000    0.59260   0.48050   0.89980   Biso      1.000     C          -0.067973           
         C3        1.0000    0.61710   0.52000   0.84180   Biso      1.000     C          0.598972  
         C4        1.0000    0.59430   0.83200   0.79000   Biso      1.000     C          0.590057  
         C5        1.0000    0.64800   0.78960   0.83140   Biso      1.000     C          -0.04701  
         C6        1.0000    0.74200   0.78770   0.90830   Biso      1.000     C          0.068479  
         C7        1.0000    0.11710   0.52000   0.65820   Biso      1.000     C          0.598973  
         C8        1.0000    0.09260   0.48050   0.60020   Biso      1.000     C          -0.067973           
         C9        1.0000    0.95860   0.45160   0.61140   Biso      1.000     C          0.067452  
         C10       1.0000    0.75800   0.28770   0.40830   Biso      1.000     C          0.068479  
         C11       1.0000    0.45860   0.45160   0.88860   Biso      1.000     C          0.067451  
         C12       1.0000    0.85200   0.28960   0.33140   Biso      1.000     C          -0.04701  
         C13       1.0000    0.73180   0.56620   0.60590   Biso      1.000     C          0.566146  
         C14       1.0000    0.80250   0.52680   0.47020   Biso      1.000     C          -0.078051           
         C15       1.0000    0.83780   0.56060   0.52730   Biso      1.000     C          -0.068731           
         C16       1.0000    0.02520   0.41260   0.49080   Biso      1.000     C          0.065259  
         C17       1.0000    0.97480   0.58740   0.50920   Biso      1.000     C          0.065259  
         C18       1.0000    0.04140   0.54840   0.38860   Biso      1.000     C          0.067452  
         C19       1.0000    0.90570   0.16800   0.29000   Biso      1.000     C          0.590057  
         C20       1.0000    0.88290   0.48000   0.34180   Biso      1.000     C          0.598973  
         C21       1.0000    0.16220   0.43940   0.47270   Biso      1.000     C          -0.068733           
         C22       1.0000    0.90570   0.33200   0.29000   Biso      1.000     C          0.590057  
         C23       1.0000    0.19750   0.47320   0.52980   Biso      1.000     C          -0.078048           
         C24       1.0000    0.76820   0.06620   0.10590   Biso      1.000     C          0.566147  
         C25       1.0000    0.66220   0.43940   0.02730   Biso      1.000     C          -0.068735           
         C26       1.0000    0.73180   0.93380   0.60590   Biso      1.000     C          0.566146  
         C27       1.0000    0.75800   0.21230   0.40830   Biso      1.000     C          0.068479  
         C28       1.0000    0.80250   0.97320   0.47020   Biso      1.000     C          -0.078053           
         C29       1.0000    0.83780   0.93940   0.52730   Biso      1.000     C          -0.068731           
         C30       1.0000    0.97480   0.91260   0.50920   Biso      1.000     C          0.06526   
         C31       1.0000    0.04140   0.95160   0.38860   Biso      1.000     C          0.06745   
         C32       1.0000    0.90740   0.98050   0.39980   Biso      1.000     C          -0.067969           
         C33       1.0000    0.88290   0.02000   0.34180   Biso      1.000     C          0.598973  
         C34       1.0000    0.61710   0.98000   0.84180   Biso      1.000     C          0.598973  
         C35       1.0000    0.52520   0.41260   0.00920   Biso      1.000     C          0.06526   
         C36       1.0000    0.59260   0.01950   0.89980   Biso      1.000     C          -0.067973           
         C37       1.0000    0.45860   0.04840   0.88860   Biso      1.000     C          0.067452  
         C38       1.0000    0.52520   0.08740   0.00920   Biso      1.000     C          0.065259  
         C39       1.0000    0.66220   0.06060   0.02730   Biso      1.000     C          -0.068733           
         C40       1.0000    0.74200   0.71230   0.90830   Biso      1.000     C          0.068478  
         C41       1.0000    0.64800   0.71040   0.83140   Biso      1.000     C          -0.04701  
         C42       1.0000    0.59430   0.66800   0.79000   Biso      1.000     C          0.590057  
         C43       1.0000    0.76820   0.43380   0.10590   Biso      1.000     C          0.566147  
         C44       1.0000    0.69750   0.02680   0.97020   Biso      1.000     C          -0.078048           
         C45       1.0000    0.69750   0.47320   0.97020   Biso      1.000     C          -0.078048           
         C46       1.0000    0.59970   0.75000   0.79540   Biso      1.000     C          -0.072528           
         C47       1.0000    0.26820   0.43380   0.39410   Biso      1.000     C          0.566146  
         C48       1.0000    0.85200   0.21040   0.33140   Biso      1.000     C          -0.04701  
         C49       1.0000    0.14800   0.71040   0.66860   Biso      1.000     C          -0.04701  
         C50       1.0000    0.38290   0.02000   0.15820   Biso      1.000     C          0.598973  
         C51       1.0000    0.25800   0.28770   0.09170   Biso      1.000     C          0.068479  
         C52       1.0000    0.02520   0.08740   0.49080   Biso      1.000     C          0.065258  
         C53       1.0000    0.54140   0.54840   0.11140   Biso      1.000     C          0.06745   
         C54       1.0000    0.35200   0.28960   0.16860   Biso      1.000     C          -0.04701  
         C55       1.0000    0.47480   0.58740   0.99080   Biso      1.000     C          0.065259  
         C56       1.0000    0.33780   0.56060   0.97270   Biso      1.000     C          -0.068733           
         C57       1.0000    0.30250   0.52680   0.02980   Biso      1.000     C          -0.078049           
         C58       1.0000    0.09430   0.66800   0.71000   Biso      1.000     C          0.590058  
         C59       1.0000    0.16220   0.06060   0.47270   Biso      1.000     C          -0.068733           
         C60       1.0000    0.19750   0.02680   0.52980   Biso      1.000     C          -0.07805  
         C61       1.0000    0.23180   0.56620   0.89410   Biso      1.000     C          0.566146  
         C62       1.0000    0.24200   0.78770   0.59170   Biso      1.000     C          0.068479  
         C63       1.0000    0.14800   0.78960   0.66860   Biso      1.000     C          -0.04701  
         C64       1.0000    0.09430   0.83200   0.71000   Biso      1.000     C          0.590058  
         C65       1.0000    0.40740   0.98050   0.10020   Biso      1.000     C          -0.067973           
         C66       1.0000    0.26820   0.06620   0.39410   Biso      1.000     C          0.566146  
         C67       1.0000    0.95860   0.04840   0.61140   Biso      1.000     C          0.06745   
         C68       1.0000    0.40740   0.51950   0.10020   Biso      1.000     C          -0.06797  
         C69       1.0000    0.90030   0.25000   0.29540   Biso      1.000     C          -0.072528           
         C70       1.0000    0.24200   0.71230   0.59170   Biso      1.000     C          0.068479  
         C71       1.0000    0.40030   0.25000   0.20460   Biso      1.000     C          -0.072532           
         C72       1.0000    0.25800   0.21230   0.09170   Biso      1.000     C          0.068478  
         C73       1.0000    0.35200   0.21040   0.16860   Biso      1.000     C          -0.047006           
         C74       1.0000    0.09970   0.75000   0.70460   Biso      1.000     C          -0.072528           
         C75       1.0000    0.54140   0.95160   0.11140   Biso      1.000     C          0.067452  
         C76       1.0000    0.40570   0.16800   0.21000   Biso      1.000     C          0.590057  
         C77       1.0000    0.11710   0.98000   0.65820   Biso      1.000     C          0.598972  
         C78       1.0000    0.30250   0.97320   0.02980   Biso      1.000     C          -0.078051           
         C79       1.0000    0.09260   0.01950   0.60020   Biso      1.000     C          -0.06797  
         C80       1.0000    0.33780   0.93940   0.97270   Biso      1.000     C          -0.068731           
         C81       1.0000    0.38290   0.48000   0.15820   Biso      1.000     C          0.598972  
         C82       1.0000    0.47480   0.91260   0.99080   Biso      1.000     C          0.06526   
         C83       1.0000    0.23180   0.93380   0.89410   Biso      1.000     C          0.566146  
         C84       1.0000    0.40570   0.33200   0.21000   Biso      1.000     C          0.590057  
         Eu1       1.0000    0.56459   0.09283   0.29558   Biso      1.000     Eu          1.358376  
         Eu2       1.0000    0.93541   0.90717   0.79558   Biso      1.000     Eu          1.358376  
         Eu3       1.0000    0.43541   0.90717   0.70442   Biso      1.000     Eu          1.358376  
         Eu4       1.0000    0.06459   0.09283   0.20442   Biso      1.000     Eu          1.358376  
         Eu5       1.0000    0.56459   0.40717   0.29558   Biso      1.000     Eu          1.358375  
         Eu6       1.0000    0.43541   0.59283   0.70442   Biso      1.000     Eu          1.358376  
         Eu7       1.0000    0.93541   0.59283   0.79558   Biso      1.000     Eu          1.358376  
         Eu8       1.0000    0.06459   0.40717   0.20442   Biso      1.000     Eu          1.358375  
         H1        1.0000    0.96820   0.25000   0.24460   Biso      1.000     H          0.131344  
         H2        1.0000    0.29290   0.49140   0.52110   Biso      1.000     H          0.139359  
         H3        1.0000    0.46820   0.25000   0.25540   Biso      1.000     H          0.131344  
         H4        1.0000    0.72700   0.18510   0.43500   Biso      1.000     H          0.101868  
         H5        1.0000    0.03180   0.75000   0.75540   Biso      1.000     H          0.131344  
         H6        1.0000    0.27300   0.68510   0.56500   Biso      1.000     H          0.101867  
         H7        1.0000    0.22700   0.31490   0.06500   Biso      1.000     H          0.101868  
         H8        1.0000    0.79290   0.00860   0.97890   Biso      1.000     H          0.139359  
         H9        1.0000    0.88540   0.45680   0.65900   Biso      1.000     H          0.109979  
         H10       1.0000    0.77300   0.81490   0.93500   Biso      1.000     H          0.101867  
         H11       1.0000    0.38540   0.04320   0.84100   Biso      1.000     H          0.109979  
         H12       1.0000    0.61460   0.54320   0.15900   Biso      1.000     H          0.10998   
         H13       1.0000    0.50000   0.11060   0.04890   Biso      1.000     H          0.103241  
         H14       1.0000    0.50000   0.61060   0.95110   Biso      1.000     H          0.103241  
         H15       1.0000    0.00000   0.38940   0.45110   Biso      1.000     H          0.10324   
         H16       1.0000    0.20710   0.50860   0.02110   Biso      1.000     H          0.139359  
         H17       1.0000    0.53180   0.75000   0.74460   Biso      1.000     H          0.131344  
         H18       1.0000    0.00000   0.88940   0.54890   Biso      1.000     H          0.103241  
         H19       1.0000    0.22700   0.18510   0.06500   Biso      1.000     H          0.101868  
         H20       1.0000    0.70710   0.99140   0.47890   Biso      1.000     H          0.139359  
         H21       1.0000    0.50000   0.88940   0.95110   Biso      1.000     H          0.103241  
         H22       1.0000    0.11460   0.54320   0.34100   Biso      1.000     H          0.10998   
         H23       1.0000    0.00000   0.61060   0.54890   Biso      1.000     H          0.103241  
         H24       1.0000    0.70710   0.50860   0.47890   Biso      1.000     H          0.139359  
         H25       1.0000    0.72700   0.31490   0.43500   Biso      1.000     H          0.101868  
         H26       1.0000    0.61460   0.95680   0.15900   Biso      1.000     H          0.109979  
         H27       1.0000    0.20710   0.99140   0.02110   Biso      1.000     H          0.139359  
         H28       1.0000    0.29290   0.00860   0.52110   Biso      1.000     H          0.139359  
         H29       1.0000    0.00000   0.11060   0.45110   Biso      1.000     H          0.103241  
         H30       1.0000    0.88540   0.04320   0.65900   Biso      1.000     H          0.109979  
         H31       1.0000    0.38540   0.45680   0.84100   Biso      1.000     H          0.109979  
         H32       1.0000    0.50000   0.38940   0.04890   Biso      1.000     H          0.10324   
         H33       1.0000    0.79290   0.49140   0.97890   Biso      1.000     H          0.139359  
         H34       1.0000    0.27300   0.81490   0.56500   Biso      1.000     H          0.101867  
         H35       1.0000    0.11460   0.95680   0.34100   Biso      1.000     H          0.10998   
         H36       1.0000    0.77300   0.68510   0.93500   Biso      1.000     H          0.101867  
         N1        1.0000    0.92700   0.08240   0.56030   Biso      1.000     N          -0.177642           
         N2        1.0000    0.57300   0.58240   0.06030   Biso      1.000     N          -0.177642           
         N3        1.0000    0.79150   0.75000   0.94690   Biso      1.000     N          -0.197994           
         N4        1.0000    0.07300   0.58240   0.43970   Biso      1.000     N          -0.177641           
         N5        1.0000    0.70850   0.25000   0.44690   Biso      1.000     N          -0.197994           
         N6        1.0000    0.42700   0.08240   0.93970   Biso      1.000     N          -0.177642           
         N7        1.0000    0.92700   0.41760   0.56030   Biso      1.000     N          -0.177642           
         N8        1.0000    0.57300   0.91760   0.06030   Biso      1.000     N          -0.177642           
         N9        1.0000    0.29150   0.75000   0.55310   Biso      1.000     N          -0.197995           
         N10       1.0000    0.07300   0.91760   0.43970   Biso      1.000     N          -0.177642           
         N11       1.0000    0.42700   0.41760   0.93970   Biso      1.000     N          -0.177641           
         N12       1.0000    0.20850   0.25000   0.05310   Biso      1.000     N          -0.197994           
         O1        1.0000    0.26400   0.90310   0.83720   Biso      1.000     O          -0.590563           
         O2        1.0000    0.26400   0.59690   0.83720   Biso      1.000     O          -0.590563           
         O3        1.0000    0.34320   0.36920   0.18310   Biso      1.000     O          -0.605935           
         O4        1.0000    0.51230   0.33050   0.26950   Biso      1.000     O          -0.537992           
         O5        1.0000    0.98770   0.83050   0.76950   Biso      1.000     O          -0.537993           
         O6        1.0000    0.25420   0.95990   0.65000   Biso      1.000     O          -0.513564           
         O7        1.0000    0.00120   0.96990   0.70880   Biso      1.000     O          -0.54799  
         O8        1.0000    0.10810   0.95800   0.88500   Biso      1.000     O          -0.464148           
         O9        1.0000    0.39190   0.04200   0.38500   Biso      1.000     O          -0.464148           
         O10       1.0000    0.23600   0.09690   0.33720   Biso      1.000     O          -0.590563           
         O11       1.0000    0.24580   0.04010   0.15000   Biso      1.000     O          -0.513565           
         O12       1.0000    0.49880   0.03010   0.20880   Biso      1.000     O          -0.54799  
         O13       1.0000    0.51230   0.16950   0.26950   Biso      1.000     O          -0.537993           
         O14       1.0000    0.34320   0.13080   0.18310   Biso      1.000     O          -0.605936           
         O15       1.0000    0.15680   0.86920   0.68310   Biso      1.000     O          -0.605935           
         O16       1.0000    0.10810   0.54200   0.88500   Biso      1.000     O          -0.464149           
         O17       1.0000    0.84320   0.36920   0.31690   Biso      1.000     O          -0.605935           
         O18       1.0000    0.24580   0.45990   0.15000   Biso      1.000     O          -0.513564           
         O19       1.0000    0.75420   0.95990   0.85000   Biso      1.000     O          -0.513565           
         O20       1.0000    0.50120   0.96990   0.79120   Biso      1.000     O          -0.54799  
         O21       1.0000    0.89190   0.04200   0.11500   Biso      1.000     O          -0.464148           
         O22       1.0000    0.73600   0.09690   0.16280   Biso      1.000     O          -0.590563           
         O23       1.0000    0.65680   0.86920   0.81690   Biso      1.000     O          -0.605935           
         O24       1.0000    0.48770   0.83050   0.73050   Biso      1.000     O          -0.537993           
         O25       1.0000    0.01230   0.16950   0.23050   Biso      1.000     O          -0.537993           
         O26       1.0000    0.76400   0.90310   0.66280   Biso      1.000     O          -0.590563           
         O27       1.0000    0.60810   0.95800   0.61500   Biso      1.000     O          -0.464148           
         O28       1.0000    0.99880   0.03010   0.29120   Biso      1.000     O          -0.54799  
         O29       1.0000    0.74580   0.04010   0.35000   Biso      1.000     O          -0.513564           
         O30       1.0000    0.48770   0.66950   0.73050   Biso      1.000     O          -0.537992           
         O31       1.0000    0.65680   0.63080   0.81690   Biso      1.000     O          -0.605935           
         O32       1.0000    0.49880   0.46990   0.20880   Biso      1.000     O          -0.547989           
         O33       1.0000    0.73600   0.40310   0.16280   Biso      1.000     O          -0.590563           
         O34       1.0000    0.25420   0.54010   0.65000   Biso      1.000     O          -0.513564           
         O35       1.0000    0.00120   0.53010   0.70880   Biso      1.000     O          -0.547989           
         O36       1.0000    0.39190   0.45800   0.38500   Biso      1.000     O          -0.464149           
         O37       1.0000    0.23600   0.40310   0.33720   Biso      1.000     O          -0.590562           
         O38       1.0000    0.15680   0.63080   0.68310   Biso      1.000     O          -0.605935           
         O39       1.0000    0.98770   0.66950   0.76950   Biso      1.000     O          -0.537993           
         O40       1.0000    0.50120   0.53010   0.79120   Biso      1.000     O          -0.547989           
         O41       1.0000    0.75420   0.54010   0.85000   Biso      1.000     O          -0.513564           
         O42       1.0000    0.01230   0.33050   0.23050   Biso      1.000     O          -0.537993           
         O43       1.0000    0.76400   0.59690   0.66280   Biso      1.000     O          -0.590563           
         O44       1.0000    0.60810   0.54200   0.61500   Biso      1.000     O          -0.464148           
         O45       1.0000    0.99880   0.46990   0.29120   Biso      1.000     O          -0.54799  
         O46       1.0000    0.74580   0.45990   0.35000   Biso      1.000     O          -0.513564           
         O47       1.0000    0.89190   0.45800   0.11500   Biso      1.000     O          -0.464149           
         O48       1.0000    0.84320   0.13080   0.31690   Biso      1.000     O          -0.605935 