
##########################################################################
#               Crystallographic Information Format file
#               Produced by PyCifRW module
#
#  This is a CIF file.  CIF has been adopted by the International
#  Union of Crystallography as the standard for data archiving and
#  transmission.
#
#  For information on this file format, follow the CIF links at
#  http://www.iucr.org
##########################################################################

data_image0

_cell_length_a                          4.9392
_cell_length_b                          12.1867
_cell_length_c                          10.783
_cell_angle_alpha                       90
_cell_angle_beta                        94.7665
_cell_angle_gamma                       90
_symmetry_space_group_name_H-M          'P 1'
_symmetry_int_tables_number             1
loop_
  _symmetry_equiv_pos_as_xyz
         'x, y, z' 
loop_
  _atom_site_label
  _atom_site_occupancy
  _atom_site_fract_x
  _atom_site_fract_y
  _atom_site_fract_z
  _atom_site_thermal_displace_type
  _atom_site_B_iso_or_equiv
  _atom_site_type_symbol
  _atom_site_charge
         Al1       1.0000    0.75650   0.75000   0.10140   Biso      1.000     Al          1.816991  
         Al2       1.0000    0.00000   0.00000   0.00000   Biso      1.000     Al          1.82614   
         Al3       1.0000    0.00000   0.50000   0.00000   Biso      1.000     Al          1.8261439999999998  
         Al4       1.0000    0.24350   0.25000   0.89860   Biso      1.000     Al          1.8169849999999999  
         C1        1.0000    0.61680   0.03660   0.33340   Biso      1.000     C          -0.23028600000000002          
         C2        1.0000    0.47040   0.97790   0.43220   Biso      1.000     C          0.07080299999999999           
         C3        1.0000    0.47040   0.52210   0.43220   Biso      1.000     C          0.07079500000000001           
         C4        1.0000    0.61680   0.46340   0.33340   Biso      1.000     C          -0.23028  
         C5        1.0000    0.38320   0.53660   0.66660   Biso      1.000     C          -0.230287           
         C6        1.0000    0.52960   0.47790   0.56780   Biso      1.000     C          0.07080499999999999           
         C7        1.0000    0.38320   0.96340   0.66660   Biso      1.000     C          -0.230287           
         C8        1.0000    0.52960   0.02210   0.56780   Biso      1.000     C          0.07080700000000001           
         F1        1.0000    0.06630   0.14670   0.98370   Biso      1.000     F          -0.570573           
         F2        1.0000    0.93370   0.64670   0.01630   Biso      1.000     F          -0.570573           
         F3        1.0000    0.93370   0.85330   0.01630   Biso      1.000     F          -0.570574           
         F4        1.0000    0.06630   0.35330   0.98370   Biso      1.000     F          -0.5705720000000001           
         O1        1.0000    0.39270   0.13680   0.81110   Biso      1.000     O          -0.853276           
         O2        1.0000    0.29810   0.54120   0.91630   Biso      1.000     O          -0.8554860000000001           
         O3        1.0000    0.39270   0.36320   0.81110   Biso      1.000     O          -0.8532780000000001           
         O4        1.0000    0.77400   0.49290   0.85620   Biso      1.000     O          -0.830825           
         O5        1.0000    0.29810   0.95880   0.91630   Biso      1.000     O          -0.8554870000000001           
         O6        1.0000    0.77400   0.00710   0.85620   Biso      1.000     O          -0.8308209999999999           
         O7        1.0000    0.70190   0.04120   0.08370   Biso      1.000     O          -0.8554860000000001           
         O8        1.0000    0.60730   0.86320   0.18890   Biso      1.000     O          -0.8532790000000001           
         O9        1.0000    0.22600   0.99290   0.14380   Biso      1.000     O          -0.830822           
         O10       1.0000    0.22600   0.50710   0.14380   Biso      1.000     O          -0.8308260000000001           
         O11       1.0000    0.60730   0.63680   0.18890   Biso      1.000     O          -0.853282           
         O12       1.0000    0.70190   0.45880   0.08370   Biso      1.000     O          -0.855483           
         P1        1.0000    0.46410   0.48600   0.81870   Biso      1.000     P          1.4480819999999999  
         P2        1.0000    0.46410   0.01400   0.81870   Biso      1.000     P          1.448076  
         P3        1.0000    0.53590   0.98600   0.18130   Biso      1.000     P          1.448076  
         P4        1.0000    0.53590   0.51400   0.18130   Biso      1.000     P          1.44808 