
##########################################################################
#               Crystallographic Information Format file
#               Produced by PyCifRW module
#
#  This is a CIF file.  CIF has been adopted by the International
#  Union of Crystallography as the standard for data archiving and
#  transmission.
#
#  For information on this file format, follow the CIF links at
#  http://www.iucr.org
##########################################################################

data_image0

_cell_length_a                          9.6196
_cell_length_b                          9.6196
_cell_length_c                          12.817
_cell_angle_alpha                       90
_cell_angle_beta                        90
_cell_angle_gamma                       92.047
_symmetry_space_group_name_H-M          'P 1'
_symmetry_int_tables_number             1
loop_
  _symmetry_equiv_pos_as_xyz
         'x, y, z' 
loop_
  _atom_site_label
  _atom_site_occupancy
  _atom_site_fract_x
  _atom_site_fract_y
  _atom_site_fract_z
  _atom_site_thermal_displace_type
  _atom_site_B_iso_or_equiv
  _atom_site_type_symbol
  _atom_site_charge
         C1        1.0000    0.54224   0.94796   0.13983   Biso      1.000     C          -0.151634           
         C2        1.0000    0.32000   0.04246   0.60950   Biso      1.000     C          -0.025751           
         C3        1.0000    0.45776   0.05204   0.63983   Biso      1.000     C          -0.15162899999999999          
         C4        1.0000    0.56358   0.03888   0.56688   Biso      1.000     C          -0.057703           
         C5        1.0000    0.52839   0.01939   0.46283   Biso      1.000     C          -0.096333           
         C6        1.0000    0.20313   0.05053   0.68771   Biso      1.000     C          0.6465529999999999  
         C7        1.0000    0.71338   0.03830   0.59995   Biso      1.000     C          0.671082  
         C8        1.0000    0.60720   0.98600   0.93121   Biso      1.000     C          -0.10016599999999999          
         C9        1.0000    0.71240   0.97544   0.00350   Biso      1.000     C          -0.093237           
         C10       1.0000    0.68000   0.95754   0.10950   Biso      1.000     C          -0.025745999999999998         
         C11       1.0000    0.28760   0.02456   0.50350   Biso      1.000     C          -0.093239           
         C12       1.0000    0.01400   0.39280   0.56879   Biso      1.000     C          -0.10016599999999999          
         C13       1.0000    0.47161   0.98061   0.96283   Biso      1.000     C          -0.096327           
         C14       1.0000    0.79687   0.94947   0.18771   Biso      1.000     C          0.6465529999999999  
         C15       1.0000    0.28662   0.96170   0.09995   Biso      1.000     C          0.671081  
         C16       1.0000    0.98600   0.60720   0.06879   Biso      1.000     C          -0.10016599999999999          
         C17       1.0000    0.97544   0.71240   0.99650   Biso      1.000     C          -0.093236           
         C18       1.0000    0.95754   0.68000   0.89050   Biso      1.000     C          -0.025751999999999997         
         C19       1.0000    0.94796   0.54224   0.86017   Biso      1.000     C          -0.15162899999999999          
         C20       1.0000    0.96112   0.43642   0.93312   Biso      1.000     C          -0.057704           
         C21       1.0000    0.98061   0.47161   0.03717   Biso      1.000     C          -0.096325           
         C22       1.0000    0.43642   0.96112   0.06688   Biso      1.000     C          -0.057701           
         C23       1.0000    0.39280   0.01400   0.43121   Biso      1.000     C          -0.100156           
         C24       1.0000    0.96170   0.28662   0.90005   Biso      1.000     C          0.671082  
         C25       1.0000    0.03830   0.71338   0.40005   Biso      1.000     C          0.671081  
         C26       1.0000    0.05053   0.20313   0.31229   Biso      1.000     C          0.6465529999999999  
         C27       1.0000    0.01939   0.52839   0.53717   Biso      1.000     C          -0.096327           
         C28       1.0000    0.03888   0.56358   0.43312   Biso      1.000     C          -0.057701           
         C29       1.0000    0.05204   0.45776   0.36017   Biso      1.000     C          -0.151634           
         C30       1.0000    0.04246   0.32000   0.39050   Biso      1.000     C          -0.025745999999999998         
         C31       1.0000    0.02456   0.28760   0.49650   Biso      1.000     C          -0.093237           
         C32       1.0000    0.94947   0.79687   0.81229   Biso      1.000     C          0.6465529999999999  
         H1        1.0000    0.06740   0.48000   0.29040   Biso      1.000     H          0.110232  
         H2        1.0000    0.37140   0.00320   0.36090   Biso      1.000     H          0.10605999999999999           
         H3        1.0000    0.19520   0.01980   0.48200   Biso      1.000     H          0.11130899999999999           
         H4        1.0000    0.48000   0.06740   0.70960   Biso      1.000     H          0.110232  
         H5        1.0000    0.59850   0.00990   0.41370   Biso      1.000     H          0.11098599999999999           
         H6        1.0000    0.80480   0.98020   0.98200   Biso      1.000     H          0.11130799999999999           
         H7        1.0000    0.52000   0.93260   0.20960   Biso      1.000     H          0.110232  
         H8        1.0000    0.40150   0.99010   0.91370   Biso      1.000     H          0.11098599999999999           
         H9        1.0000    0.99680   0.62860   0.13910   Biso      1.000     H          0.10605999999999999           
         H10       1.0000    0.98020   0.80480   0.01800   Biso      1.000     H          0.11130799999999999           
         H11       1.0000    0.93260   0.52000   0.79040   Biso      1.000     H          0.110232  
         H12       1.0000    0.99010   0.40150   0.08630   Biso      1.000     H          0.11098599999999999           
         H13       1.0000    0.00320   0.37140   0.63910   Biso      1.000     H          0.10605999999999999           
         H14       1.0000    0.01980   0.19520   0.51800   Biso      1.000     H          0.11130799999999999           
         H15       1.0000    0.62860   0.99680   0.86090   Biso      1.000     H          0.10605999999999999           
         H16       1.0000    0.00990   0.59850   0.58630   Biso      1.000     H          0.11098599999999999           
         Li1       1.0000    0.11770   0.03950   0.90340   Biso      1.000     Li          0.817814  
         Li2       1.0000    0.26940   0.73060   0.25000   Biso      1.000     Li          0.898275  
         Li3       1.0000    0.73060   0.26940   0.75000   Biso      1.000     Li          0.898275  
         Li4       1.0000    0.07100   0.92900   0.25000   Biso      1.000     Li          0.8006300000000001  
         Li5       1.0000    0.92900   0.07100   0.75000   Biso      1.000     Li          0.8006310000000001  
         Li6       1.0000    0.03950   0.11770   0.09660   Biso      1.000     Li          0.817815  
         Li7       1.0000    0.96050   0.88230   0.59660   Biso      1.000     Li          0.817815  
         Li8       1.0000    0.88230   0.96050   0.40340   Biso      1.000     Li          0.817815  
         O1        1.0000    0.03312   0.08218   0.34681   Biso      1.000     O          -0.7432979999999999           
         O2        1.0000    0.07566   0.23312   0.21916   Biso      1.000     O          -0.668579           
         O3        1.0000    0.01431   0.19991   0.96105   Biso      1.000     O          -0.702623           
         O4        1.0000    0.91619   0.25531   0.81101   Biso      1.000     O          -0.7841779999999999           
         O5        1.0000    0.96688   0.91782   0.84681   Biso      1.000     O          -0.7432979999999999           
         O6        1.0000    0.92434   0.76688   0.71916   Biso      1.000     O          -0.668579           
         O7        1.0000    0.19991   0.01431   0.03895   Biso      1.000     O          -0.702623           
         O8        1.0000    0.76688   0.92434   0.28084   Biso      1.000     O          -0.668579           
         O9        1.0000    0.91782   0.96688   0.15319   Biso      1.000     O          -0.7432979999999999           
         O10       1.0000    0.08381   0.74469   0.31101   Biso      1.000     O          -0.784177           
         O11       1.0000    0.80009   0.98569   0.53895   Biso      1.000     O          -0.702623           
         O12       1.0000    0.74469   0.08381   0.68899   Biso      1.000     O          -0.7841779999999999           
         O13       1.0000    0.08218   0.03312   0.65319   Biso      1.000     O          -0.7432979999999999           
         O14       1.0000    0.23312   0.07566   0.78084   Biso      1.000     O          -0.668579           
         O15       1.0000    0.25531   0.91619   0.18899   Biso      1.000     O          -0.784177           
         O16       1.0000    0.98569   0.80009   0.46105   Biso      1.000     O          -0.702623 