
##########################################################################
#               Crystallographic Information Format file
#               Produced by PyCifRW module
#
#  This is a CIF file.  CIF has been adopted by the International
#  Union of Crystallography as the standard for data archiving and
#  transmission.
#
#  For information on this file format, follow the CIF links at
#  http://www.iucr.org
##########################################################################

data_image0

_cell_length_a                          9.804
_cell_length_b                          16.8386
_cell_length_c                          16.8386
_cell_angle_alpha                       85.1384
_cell_angle_beta                        73.0752
_cell_angle_gamma                       73.0753
_symmetry_space_group_name_H-M          'P 1'
_symmetry_int_tables_number             1
loop_
  _symmetry_equiv_pos_as_xyz
         'x, y, z' 
loop_
  _atom_site_label
  _atom_site_occupancy
  _atom_site_fract_x
  _atom_site_fract_y
  _atom_site_fract_z
  _atom_site_thermal_displace_type
  _atom_site_B_iso_or_equiv
  _atom_site_type_symbol
  _atom_site_charge
         C1        1.0000    0.65965   0.03635   0.10719   Biso      1.000     C          0.0211    
         C2        1.0000    0.05507   0.78247   0.67909   Biso      1.000     C          -0.080945           
         C3        1.0000    0.58894   0.94664   0.65252   Biso      1.000     C          0.067445  
         C4        1.0000    0.68094   0.91364   0.70152   Biso      1.000     C          -0.286823           
         C5        1.0000    0.82360   0.86786   0.66392   Biso      1.000     C          0.27967   
         C6        1.0000    0.86600   0.85600   0.58028   Biso      1.000     C          -0.294983           
         C7        1.0000    0.76684   0.89281   0.53635   Biso      1.000     C          0.021255  
         C8        1.0000    0.01663   0.71753   0.82091   Biso      1.000     C          -0.08101599999999999          
         C9        1.0000    0.68810   0.55336   0.84748   Biso      1.000     C          0.065118  
         C10       1.0000    0.79610   0.58636   0.79848   Biso      1.000     C          -0.28234499999999996          
         C11       1.0000    0.85538   0.63214   0.83608   Biso      1.000     C          0.27516599999999997           
         C12       1.0000    0.80228   0.64400   0.91972   Biso      1.000     C          -0.289983           
         C13       1.0000    0.69600   0.60719   0.96365   Biso      1.000     C          0.0191    
         C14       1.0000    0.83754   0.17909   0.21753   Biso      1.000     C          -0.078898           
         C15       1.0000    0.53558   0.15252   0.05336   Biso      1.000     C          0.068236  
         C16       1.0000    0.59458   0.20152   0.08636   Biso      1.000     C          -0.28286100000000003          
         C17       1.0000    0.69146   0.16392   0.13214   Biso      1.000     C          0.277265  
         C18       1.0000    0.72200   0.08028   0.14400   Biso      1.000     C          -0.291271           
         C19       1.0000    0.73416   0.32091   0.28247   Biso      1.000     C          -0.07900800000000001          
         C20       1.0000    0.24146   0.34748   0.44664   Biso      1.000     C          0.068014  
         C21       1.0000    0.38246   0.29848   0.41364   Biso      1.000     C          -0.28412600000000005          
         C22       1.0000    0.48752   0.33608   0.36786   Biso      1.000     C          0.277852  
         C23       1.0000    0.69681   0.53635   0.60719   Biso      1.000     C          0.020063  
         C24       1.0000    0.55372   0.58028   0.64400   Biso      1.000     C          -0.29091300000000003          
         C25       1.0000    0.51248   0.66392   0.63214   Biso      1.000     C          0.277857  
         C26       1.0000    0.61754   0.70152   0.58636   Biso      1.000     C          -0.28412800000000005          
         C27       1.0000    0.12500   0.75000   0.75000   Biso      1.000     C          0.083678  
         C28       1.0000    0.87500   0.25000   0.25000   Biso      1.000     C          0.08367899999999999           
         C29       1.0000    0.94493   0.21753   0.32091   Biso      1.000     C          -0.080945           
         C30       1.0000    0.41106   0.05336   0.34748   Biso      1.000     C          0.06744700000000001           
         C31       1.0000    0.31906   0.08636   0.29848   Biso      1.000     C          -0.286821           
         C32       1.0000    0.17640   0.13214   0.33608   Biso      1.000     C          0.27967   
         C33       1.0000    0.13400   0.14400   0.41972   Biso      1.000     C          -0.294979           
         C34       1.0000    0.23316   0.10719   0.46365   Biso      1.000     C          0.021256999999999998          
         C35       1.0000    0.98337   0.28247   0.17909   Biso      1.000     C          -0.08101599999999999          
         C36       1.0000    0.31190   0.44664   0.15252   Biso      1.000     C          0.06511499999999999           
         C37       1.0000    0.44628   0.41972   0.35600   Biso      1.000     C          -0.290906           
         C38       1.0000    0.20390   0.41364   0.20152   Biso      1.000     C          -0.282346           
         C39       1.0000    0.19772   0.35600   0.08028   Biso      1.000     C          -0.289995           
         C40       1.0000    0.30400   0.39281   0.03635   Biso      1.000     C          0.019102  
         C41       1.0000    0.16246   0.82091   0.78247   Biso      1.000     C          -0.078898           
         C42       1.0000    0.46442   0.84748   0.94664   Biso      1.000     C          0.068234  
         C43       1.0000    0.40542   0.79848   0.91364   Biso      1.000     C          -0.282858           
         C44       1.0000    0.30854   0.83608   0.86786   Biso      1.000     C          0.277265  
         C45       1.0000    0.27800   0.91972   0.85600   Biso      1.000     C          -0.29128000000000004          
         C46       1.0000    0.34035   0.96365   0.89281   Biso      1.000     C          0.021113999999999997          
         C47       1.0000    0.26584   0.67909   0.71753   Biso      1.000     C          -0.07900800000000001          
         C48       1.0000    0.75854   0.65252   0.55336   Biso      1.000     C          0.06802000000000001           
         C49       1.0000    0.14462   0.36786   0.16392   Biso      1.000     C          0.275175  
         C50       1.0000    0.30319   0.46365   0.39281   Biso      1.000     C          0.020066999999999998          
         Cu1       1.0000    0.00000   0.50000   0.50000   Biso      1.000     Cu          0.169965  
         Cu2       1.0000    0.50000   0.00000   0.00000   Biso      1.000     Cu          0.169808  
         Cu3       1.0000    0.50000   0.50000   0.00000   Biso      1.000     Cu          0.17052   
         Cu4       1.0000    0.50000   0.00000   0.50000   Biso      1.000     Cu          0.16988699999999998           
         H1        1.0000    0.88430   0.18790   0.36110   Biso      1.000     H          0.09524500000000001           
         H2        1.0000    0.96060   0.82340   0.55360   Biso      1.000     H          0.13405699999999998           
         H3        1.0000    0.79650   0.88520   0.47920   Biso      1.000     H          0.07417699999999999           
         H4        1.0000    0.06670   0.68790   0.86110   Biso      1.000     H          0.095446  
         H5        1.0000    0.93480   0.76330   0.84890   Biso      1.000     H          0.09495   
         H6        1.0000    0.64580   0.52380   0.82200   Biso      1.000     H          0.07757   
         H7        1.0000    0.95300   0.26330   0.34890   Biso      1.000     H          0.09605   
         H8        1.0000    0.83760   0.67660   0.94640   Biso      1.000     H          0.133606  
         H9        1.0000    0.66090   0.61480   0.02080   Biso      1.000     H          0.07430700000000001           
         H10       1.0000    0.92780   0.13890   0.18790   Biso      1.000     H          0.095332  
         H11       1.0000    0.78370   0.15110   0.26330   Biso      1.000     H          0.094123  
         H12       1.0000    0.56990   0.25870   0.07810   Biso      1.000     H          0.135712  
         H13       1.0000    0.64800   0.92190   0.75870   Biso      1.000     H          0.135994  
         H14       1.0000    0.78400   0.05360   0.17660   Biso      1.000     H          0.132603  
         H15       1.0000    0.68170   0.97920   0.11480   Biso      1.000     H          0.073547  
         H16       1.0000    0.75460   0.36110   0.31210   Biso      1.000     H          0.094671  
         H17       1.0000    0.69810   0.34890   0.23670   Biso      1.000     H          0.095404  
         H18       1.0000    0.16960   0.32200   0.47620   Biso      1.000     H          0.075684  
         H19       1.0000    0.40670   0.24130   0.42190   Biso      1.000     H          0.135099  
         H20       1.0000    0.51420   0.44640   0.32340   Biso      1.000     H          0.13357   
         H21       1.0000    0.27570   0.52080   0.38520   Biso      1.000     H          0.073702  
         H22       1.0000    0.46780   0.17800   0.02380   Biso      1.000     H          0.075538  
         H23       1.0000    0.49160   0.97620   0.67800   Biso      1.000     H          0.07669400000000001           
         H24       1.0000    0.82860   0.57810   0.74130   Biso      1.000     H          0.135046  
         H25       1.0000    0.11570   0.81210   0.63890   Biso      1.000     H          0.095246  
         H26       1.0000    0.50840   0.02380   0.32200   Biso      1.000     H          0.076695  
         H27       1.0000    0.35200   0.07810   0.24130   Biso      1.000     H          0.135993  
         H28       1.0000    0.03940   0.17660   0.44640   Biso      1.000     H          0.13405699999999998           
         H29       1.0000    0.20350   0.11480   0.52080   Biso      1.000     H          0.07417699999999999           
         H30       1.0000    0.04700   0.73670   0.65110   Biso      1.000     H          0.096051  
         H31       1.0000    0.06520   0.23670   0.15110   Biso      1.000     H          0.09495   
         H32       1.0000    0.35420   0.47620   0.17800   Biso      1.000     H          0.077573  
         H33       1.0000    0.17140   0.42190   0.25870   Biso      1.000     H          0.135046  
         H34       1.0000    0.16240   0.32340   0.05360   Biso      1.000     H          0.133607  
         H35       1.0000    0.33910   0.38520   0.97920   Biso      1.000     H          0.07430700000000001           
         H36       1.0000    0.07220   0.86110   0.81210   Biso      1.000     H          0.095332  
         H37       1.0000    0.93330   0.31210   0.13890   Biso      1.000     H          0.095446  
         H38       1.0000    0.53220   0.82200   0.97620   Biso      1.000     H          0.07554   
         H39       1.0000    0.43010   0.74130   0.92190   Biso      1.000     H          0.135713  
         H40       1.0000    0.21600   0.94640   0.82340   Biso      1.000     H          0.132602  
         H41       1.0000    0.31830   0.02080   0.88520   Biso      1.000     H          0.073546  
         H42       1.0000    0.24540   0.63890   0.68790   Biso      1.000     H          0.094671  
         H43       1.0000    0.30190   0.65110   0.76330   Biso      1.000     H          0.09540499999999999           
         H44       1.0000    0.83040   0.67800   0.52380   Biso      1.000     H          0.075685  
         H45       1.0000    0.59330   0.75870   0.57810   Biso      1.000     H          0.1351    
         H46       1.0000    0.48580   0.55360   0.67660   Biso      1.000     H          0.133572  
         H47       1.0000    0.72430   0.47920   0.61480   Biso      1.000     H          0.07370299999999999           
         H48       1.0000    0.21630   0.84890   0.73670   Biso      1.000     H          0.094123  
         N1        1.0000    0.36931   0.06122   0.42860   Biso      1.000     N          -0.22560999999999998          
         N2        1.0000    0.35913   0.43878   0.07140   Biso      1.000     N          -0.22747399999999998          
         N3        1.0000    0.43053   0.92860   0.93878   Biso      1.000     N          -0.2272   
         N4        1.0000    0.79791   0.57140   0.56122   Biso      1.000     N          -0.22745900000000002          
         N5        1.0000    0.64087   0.56122   0.92860   Biso      1.000     N          -0.227479           
         N6        1.0000    0.56947   0.07140   0.06122   Biso      1.000     N          -0.2272   
         N7        1.0000    0.20209   0.42860   0.43878   Biso      1.000     N          -0.22746100000000002          
         N8        1.0000    0.63069   0.93878   0.57140   Biso      1.000     N          -0.22560700000000003          
         O1        1.0000    0.03709   0.33711   0.21491   Biso      1.000     O          -0.196404           
         O2        1.0000    0.62580   0.28509   0.33711   Biso      1.000     O          -0.198166           
         O3        1.0000    0.74800   0.21491   0.16289   Biso      1.000     O          -0.198942           
         O4        1.0000    0.96291   0.66289   0.78509   Biso      1.000     O          -0.196405           
         O5        1.0000    0.91089   0.83711   0.71491   Biso      1.000     O          -0.197773           
         O6        1.0000    0.37420   0.71491   0.66289   Biso      1.000     O          -0.198165           
         O7        1.0000    0.25200   0.78509   0.83711   Biso      1.000     O          -0.198942           
         O8        1.0000    0.08911   0.16289   0.28509   Biso      1.000     O          -0.197774 