
##########################################################################
#               Crystallographic Information Format file
#               Produced by PyCifRW module
#
#  This is a CIF file.  CIF has been adopted by the International
#  Union of Crystallography as the standard for data archiving and
#  transmission.
#
#  For information on this file format, follow the CIF links at
#  http://www.iucr.org
##########################################################################

data_image0

_cell_length_a                          14.297
_cell_length_b                          18.9017
_cell_length_c                          18.9017
_cell_angle_alpha                       66.131
_cell_angle_beta                        75.3965
_cell_angle_gamma                       104.603
_symmetry_space_group_name_H-M          'P 1'
_symmetry_int_tables_number             1
loop_
  _symmetry_equiv_pos_as_xyz
         'x, y, z' 
loop_
  _atom_site_label
  _atom_site_occupancy
  _atom_site_fract_x
  _atom_site_fract_y
  _atom_site_fract_z
  _atom_site_thermal_displace_type
  _atom_site_B_iso_or_equiv
  _atom_site_type_symbol
  _atom_site_charge
         C1        1.0000    0.12239   0.65396   0.66655   Biso      1.000     C          -0.147556           
         C2        1.0000    0.35489   0.69488   0.41507   Biso      1.000     C          -0.109904           
         C3        1.0000    0.44675   0.74034   0.41319   Biso      1.000     C          -0.080533           
         C4        1.0000    0.46733   0.71587   0.48544   Biso      1.000     C          -0.131607           
         C5        1.0000    0.39696   0.64466   0.55916   Biso      1.000     C          0.078852  
         C6        1.0000    0.30317   0.59714   0.56054   Biso      1.000     C          -0.167942           
         C7        1.0000    0.28207   0.62304   0.48915   Biso      1.000     C          -0.010247           
         C8        1.0000    0.17688   0.57490   0.49390   Biso      1.000     C          0.602447  
         C9        1.0000    0.75230   0.79618   0.64466   Biso      1.000     C          0.074188  
         C10       1.0000    0.75146   0.79869   0.71587   Biso      1.000     C          -0.125714           
         C11       1.0000    0.70641   0.84647   0.74034   Biso      1.000     C          -0.082529           
         C12       1.0000    0.66001   0.89005   0.69488   Biso      1.000     C          -0.10864  
         C13       1.0000    0.79728   0.74349   0.61912   Biso      1.000     C          0.086363  
         C14       1.0000    0.84828   0.76792   0.53495   Biso      1.000     C          -0.151415           
         C15       1.0000    0.89090   0.71984   0.51147   Biso      1.000     C          -0.094796           
         C16       1.0000    0.88275   0.64321   0.57209   Biso      1.000     C          -0.025249           
         C17       1.0000    0.83143   0.61777   0.65561   Biso      1.000     C          -0.095036           
         C18       1.0000    0.78894   0.66655   0.67949   Biso      1.000     C          -0.148437           
         C19       1.0000    0.41640   0.61912   0.63739   Biso      1.000     C          0.085368  
         C20       1.0000    0.92817   0.58930   0.54665   Biso      1.000     C          0.60202   
         C21       1.0000    0.38323   0.53495   0.69713   Biso      1.000     C          -0.151084           
         C22       1.0000    0.45484   0.57209   0.78470   Biso      1.000     C          -0.020689           
         C23       1.0000    0.33887   0.86405   0.58930   Biso      1.000     C          0.603481  
         C24       1.0000    0.70603   0.84232   0.59714   Biso      1.000     C          -0.167444           
         C25       1.0000    0.21366   0.72662   0.61777   Biso      1.000     C          -0.095616           
         C26       1.0000    0.23954   0.78470   0.64321   Biso      1.000     C          -0.025122           
         C27       1.0000    0.17106   0.76869   0.71984   Biso      1.000     C          -0.094866           
         C28       1.0000    0.08036   0.69713   0.76792   Biso      1.000     C          -0.151517           
         C29       1.0000    0.05379   0.63739   0.74349   Biso      1.000     C          0.085892  
         C30       1.0000    0.76996   0.41507   0.89005   Biso      1.000     C          -0.111375           
         C31       1.0000    0.85994   0.41319   0.84647   Biso      1.000     C          -0.079339           
         C32       1.0000    0.95277   0.48544   0.79869   Biso      1.000     C          -0.131499           
         C33       1.0000    0.95612   0.55916   0.79618   Biso      1.000     C          0.079258  
         C34       1.0000    0.86371   0.56054   0.84232   Biso      1.000     C          -0.170394           
         C35       1.0000    0.77122   0.48915   0.88781   Biso      1.000     C          -0.002636           
         C36       1.0000    0.67078   0.49390   0.93120   Biso      1.000     C          0.596888  
         C37       1.0000    0.47482   0.54665   0.86405   Biso      1.000     C          0.59976   
         C38       1.0000    0.46843   0.67949   0.65396   Biso      1.000     C          -0.148321           
         C39       1.0000    0.48704   0.65561   0.72662   Biso      1.000     C          -0.097284           
         C40       1.0000    0.40237   0.51147   0.76869   Biso      1.000     C          -0.097387           
         C41       1.0000    0.82312   0.42510   0.50610   Biso      1.000     C          0.602447  
         C42       1.0000    0.71793   0.37696   0.51085   Biso      1.000     C          -0.010251           
         C43       1.0000    0.69683   0.40286   0.43946   Biso      1.000     C          -0.16794  
         C44       1.0000    0.78634   0.27338   0.38223   Biso      1.000     C          -0.095623           
         C45       1.0000    0.87761   0.34604   0.33345   Biso      1.000     C          -0.14755  
         C46       1.0000    0.66113   0.13595   0.41070   Biso      1.000     C          0.603481  
         C47       1.0000    0.39802   0.06880   0.42510   Biso      1.000     C          0.601396  
         C48       1.0000    0.34097   0.11219   0.37696   Biso      1.000     C          -0.010264           
         C49       1.0000    0.29397   0.15768   0.40286   Biso      1.000     C          -0.167441           
         C50       1.0000    0.24770   0.20382   0.35534   Biso      1.000     C          0.074187  
         C51       1.0000    0.24854   0.20131   0.28413   Biso      1.000     C          -0.125714           
         C52       1.0000    0.29359   0.15353   0.25966   Biso      1.000     C          -0.082529           
         C53       1.0000    0.33999   0.10995   0.30512   Biso      1.000     C          -0.108637           
         C54       1.0000    0.20272   0.25651   0.38088   Biso      1.000     C          0.086363  
         C55       1.0000    0.15172   0.23208   0.46505   Biso      1.000     C          -0.151415           
         C56       1.0000    0.10910   0.28016   0.48853   Biso      1.000     C          -0.094797           
         C57       1.0000    0.11725   0.35679   0.42791   Biso      1.000     C          -0.02525  
         C58       1.0000    0.16857   0.38223   0.34439   Biso      1.000     C          -0.095037           
         C59       1.0000    0.21106   0.33345   0.32051   Biso      1.000     C          -0.148437           
         C60       1.0000    0.07183   0.41070   0.45335   Biso      1.000     C          0.60202   
         C61       1.0000    0.76046   0.21530   0.35679   Biso      1.000     C          -0.025122           
         C62       1.0000    0.82894   0.23131   0.28016   Biso      1.000     C          -0.094865           
         C63       1.0000    0.91964   0.30287   0.23208   Biso      1.000     C          -0.151517           
         C64       1.0000    0.94621   0.36261   0.25651   Biso      1.000     C          0.085891  
         C65       1.0000    0.60304   0.35534   0.44084   Biso      1.000     C          0.078845  
         C66       1.0000    0.53267   0.28413   0.51456   Biso      1.000     C          -0.131597           
         C67       1.0000    0.55325   0.25966   0.58681   Biso      1.000     C          -0.080545           
         C68       1.0000    0.64511   0.30512   0.58493   Biso      1.000     C          -0.109894           
         C69       1.0000    0.58360   0.38088   0.36261   Biso      1.000     C          0.085368  
         C70       1.0000    0.61677   0.46505   0.30287   Biso      1.000     C          -0.151084           
         C71       1.0000    0.59763   0.48853   0.23131   Biso      1.000     C          -0.09739  
         C72       1.0000    0.54516   0.42791   0.21530   Biso      1.000     C          -0.020688           
         C73       1.0000    0.60198   0.93120   0.57490   Biso      1.000     C          0.601396  
         C74       1.0000    0.51296   0.34439   0.27338   Biso      1.000     C          -0.097288           
         C75       1.0000    0.52518   0.45335   0.13595   Biso      1.000     C          0.59976   
         C76       1.0000    0.32922   0.50610   0.06880   Biso      1.000     C          0.596889  
         C77       1.0000    0.22878   0.51085   0.11219   Biso      1.000     C          -0.002643           
         C78       1.0000    0.13629   0.43946   0.15768   Biso      1.000     C          -0.170389           
         C79       1.0000    0.04388   0.44084   0.20382   Biso      1.000     C          0.079248  
         C80       1.0000    0.04723   0.51456   0.20131   Biso      1.000     C          -0.131487           
         C81       1.0000    0.14006   0.58681   0.15353   Biso      1.000     C          -0.079354           
         C82       1.0000    0.23004   0.58493   0.10995   Biso      1.000     C          -0.111359           
         C83       1.0000    0.53157   0.32051   0.34604   Biso      1.000     C          -0.148317           
         C84       1.0000    0.65903   0.88781   0.62304   Biso      1.000     C          -0.010258           
         Cu1       1.0000    0.55191   0.57997   0.97501   Biso      1.000     Cu          0.828682  
         Cu2       1.0000    0.52692   0.97501   0.44502   Biso      1.000     Cu          0.859402  
         Cu3       1.0000    0.97194   0.44502   0.57997   Biso      1.000     Cu          0.859943  
         Cu4       1.0000    0.44809   0.42003   0.02499   Biso      1.000     Cu          0.828683  
         Cu5       1.0000    0.47308   0.02499   0.55498   Biso      1.000     Cu          0.859396  
         Cu6       1.0000    0.02806   0.55498   0.42003   Biso      1.000     Cu          0.859942  
         H1        1.0000    0.24560   0.35220   0.26360   Biso      1.000     H          0.11548   
         H2        1.0000    0.70810   0.84870   0.78820   Biso      1.000     H          0.108738  
         H3        1.0000    0.78130   0.76800   0.74830   Biso      1.000     H          0.114568  
         H4        1.0000    0.70700   0.84220   0.54770   Biso      1.000     H          0.122446  
         H5        1.0000    0.10660   0.61580   0.64780   Biso      1.000     H          0.114782  
         H6        1.0000    0.25860   0.73650   0.56660   Biso      1.000     H          0.1114    
         H7        1.0000    0.18720   0.80720   0.73840   Biso      1.000     H          0.118928  
         H8        1.0000    0.03500   0.68820   0.81860   Biso      1.000     H          0.115303  
         H9        1.0000    0.70780   0.36670   0.92130   Biso      1.000     H          0.121954  
         H10       1.0000    0.85940   0.36310   0.84870   Biso      1.000     H          0.108268  
         H11       1.0000    0.52210   0.69690   0.73650   Biso      1.000     H          0.112705  
         H12       1.0000    0.49080   0.73640   0.61580   Biso      1.000     H          0.115774  
         H13       1.0000    0.62910   0.92130   0.71200   Biso      1.000     H          0.121943  
         H14       1.0000    0.38000   0.45440   0.80720   Biso      1.000     H          0.119976  
         H15       1.0000    0.34680   0.49320   0.68820   Biso      1.000     H          0.116349  
         H16       1.0000    0.34110   0.71200   0.36670   Biso      1.000     H          0.122224  
         H17       1.0000    0.49630   0.78820   0.36310   Biso      1.000     H          0.108865  
         H18       1.0000    0.52960   0.74830   0.48370   Biso      1.000     H          0.116182  
         H19       1.0000    0.25470   0.54770   0.61010   Biso      1.000     H          0.122157  
         H20       1.0000    0.86480   0.61010   0.84220   Biso      1.000     H          0.123011  
         H21       1.0000    0.85360   0.81860   0.49320   Biso      1.000     H          0.115404  
         H22       1.0000    0.01330   0.48370   0.76800   Biso      1.000     H          0.116204  
         H23       1.0000    0.82520   0.56660   0.69690   Biso      1.000     H          0.111159  
         H24       1.0000    0.17480   0.43340   0.30310   Biso      1.000     H          0.111159  
         H25       1.0000    0.92560   0.73840   0.45440   Biso      1.000     H          0.118395  
         H26       1.0000    0.14640   0.18140   0.50680   Biso      1.000     H          0.115404  
         H27       1.0000    0.37090   0.07870   0.28800   Biso      1.000     H          0.121939  
         H28       1.0000    0.29190   0.15130   0.21180   Biso      1.000     H          0.108734  
         H29       1.0000    0.21870   0.23200   0.25170   Biso      1.000     H          0.114568  
         H30       1.0000    0.29300   0.15780   0.45230   Biso      1.000     H          0.122445  
         H31       1.0000    0.89340   0.38420   0.35220   Biso      1.000     H          0.114782  
         H32       1.0000    0.74140   0.26350   0.43340   Biso      1.000     H          0.111399  
         H33       1.0000    0.81280   0.19280   0.26160   Biso      1.000     H          0.118925  
         H34       1.0000    0.96500   0.31180   0.18140   Biso      1.000     H          0.115301  
         H35       1.0000    0.29220   0.63330   0.07870   Biso      1.000     H          0.121955  
         H36       1.0000    0.07440   0.26160   0.54560   Biso      1.000     H          0.118394  
         H37       1.0000    0.98670   0.51630   0.23200   Biso      1.000     H          0.116203  
         H38       1.0000    0.14060   0.63690   0.15130   Biso      1.000     H          0.108271  
         H39       1.0000    0.74530   0.45230   0.38990   Biso      1.000     H          0.122156  
         H40       1.0000    0.47040   0.25170   0.51630   Biso      1.000     H          0.11618   
         H41       1.0000    0.50370   0.21180   0.63690   Biso      1.000     H          0.108868  
         H42       1.0000    0.65890   0.28800   0.63330   Biso      1.000     H          0.122224  
         H43       1.0000    0.75440   0.64780   0.73640   Biso      1.000     H          0.11548   
         H44       1.0000    0.62000   0.54560   0.19280   Biso      1.000     H          0.119977  
         H45       1.0000    0.47790   0.30310   0.26350   Biso      1.000     H          0.112705  
         H46       1.0000    0.50920   0.26360   0.38420   Biso      1.000     H          0.115774  
         H47       1.0000    0.13520   0.38990   0.15780   Biso      1.000     H          0.123011  
         H48       1.0000    0.65320   0.50680   0.31180   Biso      1.000     H          0.116349  
         O1        1.0000    0.88675   0.48812   0.43715   Biso      1.000     O          -0.532722           
         O2        1.0000    0.39863   0.07473   0.48812   Biso      1.000     O          -0.532234           
         O3        1.0000    0.60187   0.12657   0.47788   Biso      1.000     O          -0.530803           
         O4        1.0000    0.64730   0.08493   0.38431   Biso      1.000     O          -0.542808           
         O5        1.0000    0.41149   0.57339   0.03097   Biso      1.000     O          -0.530394           
         O6        1.0000    0.32390   0.43715   0.07473   Biso      1.000     O          -0.525477           
         O7        1.0000    0.44246   0.03097   0.39564   Biso      1.000     O          -0.536983           
         O8        1.0000    0.47530   0.39555   0.12657   Biso      1.000     O          -0.524799           
         O9        1.0000    0.56237   0.53076   0.08493   Biso      1.000     O          -0.535222           
         O10       1.0000    0.83810   0.39564   0.57339   Biso      1.000     O          -0.53808  
         O11       1.0000    0.92025   0.52212   0.60445   Biso      1.000     O          -0.530252           
         O12       1.0000    0.58851   0.42661   0.96903   Biso      1.000     O          -0.530394           
         O13       1.0000    0.55754   0.96903   0.60436   Biso      1.000     O          -0.536985           
         O14       1.0000    0.60137   0.92527   0.51188   Biso      1.000     O          -0.532234           
         O15       1.0000    0.39813   0.87343   0.52212   Biso      1.000     O          -0.530803           
         O16       1.0000    0.35270   0.91507   0.61569   Biso      1.000     O          -0.542808           
         O17       1.0000    0.67610   0.56285   0.92527   Biso      1.000     O          -0.525477           
         O18       1.0000    0.52470   0.60445   0.87343   Biso      1.000     O          -0.524799           
         O19       1.0000    0.43763   0.46924   0.91507   Biso      1.000     O          -0.535222           
         O20       1.0000    0.16190   0.60436   0.42661   Biso      1.000     O          -0.53808  
         O21       1.0000    0.11325   0.51188   0.56285   Biso      1.000     O          -0.532722           
         O22       1.0000    0.03161   0.38431   0.53076   Biso      1.000     O          -0.541932           
         O23       1.0000    0.96839   0.61569   0.46924   Biso      1.000     O          -0.541932           
         O24       1.0000    0.07975   0.47788   0.39555   Biso      1.000     O          -0.530252 