
##########################################################################
#               Crystallographic Information Format file
#               Produced by PyCifRW module
#
#  This is a CIF file.  CIF has been adopted by the International
#  Union of Crystallography as the standard for data archiving and
#  transmission.
#
#  For information on this file format, follow the CIF links at
#  http://www.iucr.org
##########################################################################

data_image0

_cell_length_a                          12.935
_cell_length_b                          14.3519
_cell_length_c                          14.3519
_cell_angle_alpha                       78.2832
_cell_angle_beta                        63.2154
_cell_angle_gamma                       63.2154
_symmetry_space_group_name_H-M          'P 1'
_symmetry_int_tables_number             1
loop_
  _symmetry_equiv_pos_as_xyz
         'x, y, z' 
loop_
  _atom_site_label
  _atom_site_occupancy
  _atom_site_fract_x
  _atom_site_fract_y
  _atom_site_fract_z
  _atom_site_thermal_displace_type
  _atom_site_B_iso_or_equiv
  _atom_site_type_symbol
  _atom_site_charge
         C1        1.0000    0.63460   0.29910   0.82410   Biso      1.000     C          -0.153401           
         C2        1.0000    0.76920   0.26030   0.96010   Biso      1.000     C          -0.164737           
         C3        1.0000    0.80700   0.23430   0.04130   Biso      1.000     C          -0.002983           
         C4        1.0000    0.73630   0.28880   0.13240   Biso      1.000     C          -0.112507           
         C5        1.0000    0.62620   0.37540   0.14340   Biso      1.000     C          -0.073625           
         C6        1.0000    0.59070   0.40040   0.06080   Biso      1.000     C          -0.13376300000000002          
         C7        1.0000    0.66150   0.34850   0.96790   Biso      1.000     C          0.075178  
         C8        1.0000    0.59020   0.53840   0.36280   Biso      1.000     C          0.622732  
         C9        1.0000    0.68620   0.56750   0.28090   Biso      1.000     C          -0.037523           
         C10       1.0000    0.66600   0.67170   0.25670   Biso      1.000     C          -0.083634           
         C11       1.0000    0.75780   0.70090   0.17590   Biso      1.000     C          -0.15137799999999998          
         C12       1.0000    0.87470   0.62770   0.11550   Biso      1.000     C          0.09143   
         C13       1.0000    0.93740   0.14060   0.02540   Biso      1.000     C          0.596992  
         C14       1.0000    0.89690   0.51910   0.13830   Biso      1.000     C          -0.153843           
         C15       1.0000    0.97790   0.65150   0.03210   Biso      1.000     C          0.079211  
         C16       1.0000    0.05190   0.59960   0.93920   Biso      1.000     C          -0.136493           
         C17       1.0000    0.14500   0.62460   0.85660   Biso      1.000     C          -0.072421           
         C18       1.0000    0.15750   0.71120   0.86760   Biso      1.000     C          -0.10991400000000001          
         C19       1.0000    0.08260   0.76570   0.95870   Biso      1.000     C          -0.0055780000000000005        
         C20       1.0000    0.98960   0.73970   0.03990   Biso      1.000     C          -0.166429           
         C21       1.0000    0.10340   0.85940   0.97460   Biso      1.000     C          0.5985729999999999  
         C22       1.0000    0.49140   0.46160   0.63720   Biso      1.000     C          0.622836  
         C23       1.0000    0.53460   0.43250   0.71910   Biso      1.000     C          -0.037509           
         C24       1.0000    0.59440   0.32830   0.74330   Biso      1.000     C          -0.08457999999999999          
         C25       1.0000    0.51360   0.50730   0.78250   Biso      1.000     C          -0.099286           
         C26       1.0000    0.80340   0.49270   0.21750   Biso      1.000     C          -0.101146           
         C27       1.0000    0.20300   0.13720   0.03840   Biso      1.000     C          0.618818  
         C28       1.0000    0.21710   0.21910   0.06750   Biso      1.000     C          -0.034845           
         C29       1.0000    0.17270   0.24330   0.17170   Biso      1.000     C          -0.086681           
         C30       1.0000    0.21280   0.47460   0.64060   Biso      1.000     C          0.600645  
         C31       1.0000    0.97930   0.53990   0.76030   Biso      1.000     C          -0.165938           
         C32       1.0000    0.09830   0.45870   0.73430   Biso      1.000     C          -0.009713           
         C33       1.0000    0.11870   0.36760   0.78880   Biso      1.000     C          -0.110722           
         C34       1.0000    0.01960   0.35660   0.87540   Biso      1.000     C          -0.074873           
         C35       1.0000    0.90150   0.43920   0.90040   Biso      1.000     C          -0.134042           
         C36       1.0000    0.87940   0.53210   0.84850   Biso      1.000     C          0.07592   
         C37       1.0000    0.54610   0.71750   0.00730   Biso      1.000     C          -0.103248           
         C38       1.0000    0.66600   0.63830   0.98090   Biso      1.000     C          -0.15368800000000002          
         C39       1.0000    0.75240   0.61550   0.87230   Biso      1.000     C          0.093015  
         C40       1.0000    0.70870   0.67590   0.79910   Biso      1.000     C          -0.150882           
         C41       1.0000    0.58770   0.75670   0.82830   Biso      1.000     C          -0.08820800000000001          
         C42       1.0000    0.50370   0.78090   0.93250   Biso      1.000     C          -0.033306           
         C43       1.0000    0.37860   0.86280   0.96160   Biso      1.000     C          0.617732  
         C44       1.0000    0.32800   0.52540   0.35940   Biso      1.000     C          0.6023    
         C45       1.0000    0.27950   0.46010   0.23970   Biso      1.000     C          -0.164688           
         C46       1.0000    0.29130   0.54130   0.26570   Biso      1.000     C          -0.009279           
         C47       1.0000    0.27510   0.63240   0.21120   Biso      1.000     C          -0.109082           
         C48       1.0000    0.25160   0.64340   0.12460   Biso      1.000     C          -0.076052           
         C49       1.0000    0.24110   0.56080   0.09960   Biso      1.000     C          -0.134987           
         C50       1.0000    0.26000   0.46790   0.15150   Biso      1.000     C          0.07738099999999999           
         C51       1.0000    0.27090   0.28250   0.99270   Biso      1.000     C          -0.10394  
         C52       1.0000    0.28520   0.36170   0.01910   Biso      1.000     C          -0.15374000000000002          
         C53       1.0000    0.24020   0.38450   0.12770   Biso      1.000     C          0.093141  
         C54       1.0000    0.18370   0.32410   0.20090   Biso      1.000     C          -0.152521           
         C55       1.0000    0.61790   0.37230   0.88450   Biso      1.000     C          0.096455  
         C56       1.0000    0.55430   0.48090   0.86170   Biso      1.000     C          -0.158081           
         Cu1       1.0000    0.46437   0.39979   0.47697   Biso      1.000     Cu          0.867257  
         Cu2       1.0000    0.34113   0.60021   0.52303   Biso      1.000     Cu          0.867819  
         Cu3       1.0000    0.19134   0.02303   0.89979   Biso      1.000     Cu          0.839145  
         Cu4       1.0000    0.11416   0.97697   0.10021   Biso      1.000     Cu          0.838456  
         H1        1.0000    0.96700   0.59920   0.71860   Biso      1.000     H          0.127127  
         H2        1.0000    0.47050   0.57760   0.77060   Biso      1.000     H          0.115569  
         H3        1.0000    0.54080   0.53290   0.90070   Biso      1.000     H          0.117623  
         H4        1.0000    0.67380   0.22850   0.83750   Biso      1.000     H          0.122492  
         H5        1.0000    0.60790   0.27650   0.70410   Biso      1.000     H          0.12066199999999999           
         H6        1.0000    0.93560   0.78140   0.09920   Biso      1.000     H          0.12748099999999998           
         H7        1.0000    0.03880   0.54380   0.93080   Biso      1.000     H          0.097973  
         H8        1.0000    0.51340   0.45620   0.06920   Biso      1.000     H          0.097178  
         H9        1.0000    0.81870   0.42240   0.22940   Biso      1.000     H          0.115622  
         H10       1.0000    0.97440   0.46710   0.09930   Biso      1.000     H          0.116781  
         H11       1.0000    0.73980   0.77150   0.16250   Biso      1.000     H          0.12193599999999999           
         H12       1.0000    0.58850   0.72350   0.29590   Biso      1.000     H          0.12001300000000001           
         H13       1.0000    0.19690   0.58430   0.79630   Biso      1.000     H          0.11086800000000001           
         H14       1.0000    0.57750   0.41570   0.20370   Biso      1.000     H          0.110371  
         H15       1.0000    0.21670   0.73260   0.81320   Biso      1.000     H          0.120928  
         H16       1.0000    0.81620   0.21860   0.90080   Biso      1.000     H          0.127613  
         H17       1.0000    0.76250   0.26740   0.18680   Biso      1.000     H          0.122076  
         H18       1.0000    0.03120   0.29630   0.91570   Biso      1.000     H          0.110918  
         H19       1.0000    0.83260   0.43080   0.95620   Biso      1.000     H          0.095266  
         H20       1.0000    0.49110   0.72940   0.07760   Biso      1.000     H          0.116524  
         H21       1.0000    0.69150   0.59930   0.03290   Biso      1.000     H          0.115717  
         H22       1.0000    0.76130   0.66250   0.72850   Biso      1.000     H          0.12141600000000001           
         H23       1.0000    0.56200   0.79590   0.77650   Biso      1.000     H          0.121458  
         H24       1.0000    0.28480   0.40080   0.28140   Biso      1.000     H          0.126529  
         H25       1.0000    0.19930   0.31320   0.76740   Biso      1.000     H          0.12132799999999999           
         H26       1.0000    0.24320   0.70370   0.08430   Biso      1.000     H          0.11152100000000001           
         H27       1.0000    0.21960   0.56920   0.04380   Biso      1.000     H          0.095837  
         H28       1.0000    0.29810   0.27060   0.92240   Biso      1.000     H          0.11583099999999999           
         H29       1.0000    0.32370   0.40070   0.96710   Biso      1.000     H          0.11646199999999998           
         H30       1.0000    0.15230   0.33750   0.27150   Biso      1.000     H          0.12216600000000001           
         H31       1.0000    0.13440   0.20410   0.22350   Biso      1.000     H          0.121163  
         H32       1.0000    0.27990   0.68680   0.23260   Biso      1.000     H          0.11963399999999999           
         O1        1.0000    0.19500   0.56460   0.61300   Biso      1.000     O          -0.5274810000000001           
         O2        1.0000    0.35910   0.92650   0.88830   Biso      1.000     O          -0.557631           
         O3        1.0000    0.29350   0.86800   0.04780   Biso      1.000     O          -0.533655           
         O4        1.0000    0.30490   0.60560   0.39960   Biso      1.000     O          -0.53696  
         O5        1.0000    0.37260   0.43540   0.38700   Biso      1.000     O          -0.527447           
         O6        1.0000    0.17390   0.07350   0.11170   Biso      1.000     O          -0.557238           
         O7        1.0000    0.20930   0.13200   0.95220   Biso      1.000     O          -0.535326           
         O8        1.0000    0.41150   0.54780   0.63200   Biso      1.000     O          -0.5390699999999999           
         O9        1.0000    0.00960   0.11300   0.93540   Biso      1.000     O          -0.519019           
         O10       1.0000    0.53560   0.38830   0.57350   Biso      1.000     O          -0.563297           
         O11       1.0000    0.16050   0.89960   0.89440   Biso      1.000     O          -0.528042           
         O12       1.0000    0.05800   0.88700   0.06460   Biso      1.000     O          -0.519474           
         O13       1.0000    0.49740   0.61170   0.42650   Biso      1.000     O          -0.561806           
         O14       1.0000    0.59130   0.45220   0.36800   Biso      1.000     O          -0.5402399999999999           
         O15       1.0000    0.95450   0.10040   0.10560   Biso      1.000     O          -0.528108           
         O16       1.0000    0.31010   0.39440   0.60040   Biso      1.000     O          -0.535062 