
##########################################################################
#               Crystallographic Information Format file
#               Produced by PyCifRW module
#
#  This is a CIF file.  CIF has been adopted by the International
#  Union of Crystallography as the standard for data archiving and
#  transmission.
#
#  For information on this file format, follow the CIF links at
#  http://www.iucr.org
##########################################################################

data_image0

_cell_length_a                          7.9841
_cell_length_b                          8.3577
_cell_length_c                          17.593
_cell_angle_alpha                       90
_cell_angle_beta                        90
_cell_angle_gamma                       109.49
_symmetry_space_group_name_H-M          'P 1'
_symmetry_int_tables_number             1
loop_
  _symmetry_equiv_pos_as_xyz
         'x, y, z' 
loop_
  _atom_site_label
  _atom_site_occupancy
  _atom_site_fract_x
  _atom_site_fract_y
  _atom_site_fract_z
  _atom_site_thermal_displace_type
  _atom_site_B_iso_or_equiv
  _atom_site_type_symbol
  _atom_site_charge
         C1        1.0000    0.08670   0.28180   0.26260   Biso      1.000     C          -0.20288  
         C2        1.0000    0.91330   0.71820   0.73740   Biso      1.000     C          -0.20288  
         C3        1.0000    0.00660   0.87170   0.70900   Biso      1.000     C          0.030713999999999998          
         C4        1.0000    0.01700   0.94110   0.63110   Biso      1.000     C          0.703683  
         C5        1.0000    0.92900   0.43600   0.52550   Biso      1.000     C          0.521392  
         C6        1.0000    0.39300   0.58690   0.62500   Biso      1.000     C          0.632224  
         C7        1.0000    0.45030   0.72000   0.68460   Biso      1.000     C          0.026458999999999996          
         C8        1.0000    0.95030   0.72000   0.81540   Biso      1.000     C          0.026462  
         C9        1.0000    0.41330   0.71820   0.76260   Biso      1.000     C          -0.20288  
         C10       1.0000    0.51700   0.94110   0.86890   Biso      1.000     C          0.703684  
         C11       1.0000    0.57100   0.56400   0.02550   Biso      1.000     C          0.521392  
         C12       1.0000    0.10700   0.41310   0.12500   Biso      1.000     C          0.632224  
         C13       1.0000    0.04970   0.28000   0.18460   Biso      1.000     C          0.026462  
         C14       1.0000    0.99340   0.12830   0.29100   Biso      1.000     C          0.030713999999999998          
         C15       1.0000    0.98300   0.05890   0.36890   Biso      1.000     C          0.703684  
         C16       1.0000    0.50660   0.87170   0.79100   Biso      1.000     C          0.030716000000000004          
         C17       1.0000    0.42900   0.43600   0.97450   Biso      1.000     C          0.521392  
         C18       1.0000    0.89300   0.58690   0.87500   Biso      1.000     C          0.632225  
         C19       1.0000    0.49340   0.12830   0.20900   Biso      1.000     C          0.030693  
         C20       1.0000    0.58670   0.28180   0.23740   Biso      1.000     C          -0.20285699999999998          
         C21       1.0000    0.54970   0.28000   0.31540   Biso      1.000     C          0.026458999999999996          
         C22       1.0000    0.60700   0.41310   0.37500   Biso      1.000     C          0.632225  
         C23       1.0000    0.07100   0.56400   0.47450   Biso      1.000     C          0.521392  
         C24       1.0000    0.48300   0.05890   0.13110   Biso      1.000     C          0.703685  
         H1        1.0000    0.66230   0.37280   0.21020   Biso      1.000     H          0.162194  
         H2        1.0000    0.36760   0.09410   0.37200   Biso      1.000     H          0.28330900000000003           
         H3        1.0000    0.83770   0.62720   0.71020   Biso      1.000     H          0.162196  
         H4        1.0000    0.13240   0.90590   0.87200   Biso      1.000     H          0.28330900000000003           
         H5        1.0000    0.63240   0.90590   0.62800   Biso      1.000     H          0.28330700000000003           
         H6        1.0000    0.16230   0.37280   0.28980   Biso      1.000     H          0.162196  
         H7        1.0000    0.86760   0.09410   0.12800   Biso      1.000     H          0.28330900000000003           
         H8        1.0000    0.33770   0.62720   0.78980   Biso      1.000     H          0.162196  
         N1        1.0000    0.07900   0.87440   0.82920   Biso      1.000     N          -0.138473           
         N2        1.0000    0.60950   0.96700   0.73400   Biso      1.000     N          -0.169675           
         N3        1.0000    0.57900   0.87440   0.67080   Biso      1.000     N          -0.138442           
         N4        1.0000    0.92100   0.12560   0.17080   Biso      1.000     N          -0.138473           
         N5        1.0000    0.89050   0.03300   0.23400   Biso      1.000     N          -0.169648           
         N6        1.0000    0.42100   0.12560   0.32920   Biso      1.000     N          -0.138473           
         N7        1.0000    0.39050   0.03300   0.26600   Biso      1.000     N          -0.169646           
         N8        1.0000    0.10950   0.96700   0.76600   Biso      1.000     N          -0.169648           
         Nd1       1.0000    0.74129   0.71817   0.47788   Biso      1.000     Nd          2.108838  
         Nd2       1.0000    0.24129   0.71817   0.02212   Biso      1.000     Nd          2.108838  
         Nd3       1.0000    0.25871   0.28183   0.52212   Biso      1.000     Nd          2.108838  
         Nd4       1.0000    0.75871   0.28183   0.97788   Biso      1.000     Nd          2.108838  
         O1        1.0000    0.23970   0.53140   0.13250   Biso      1.000     O          -0.546222           
         O2        1.0000    0.00850   0.39110   0.06560   Biso      1.000     O          -0.805557           
         O3        1.0000    0.70050   0.52210   0.04310   Biso      1.000     O          -0.614596           
         O4        1.0000    0.54970   0.70230   0.04090   Biso      1.000     O          -0.598993           
         O5        1.0000    0.62600   0.08180   0.88090   Biso      1.000     O          -0.675225           
         O6        1.0000    0.41720   0.84920   0.91670   Biso      1.000     O          -0.717225           
         O7        1.0000    0.26030   0.46860   0.63250   Biso      1.000     O          -0.546222           
         O8        1.0000    0.49150   0.60890   0.56560   Biso      1.000     O          -0.805557           
         O9        1.0000    0.79950   0.47790   0.54310   Biso      1.000     O          -0.614596           
         O10       1.0000    0.95030   0.29770   0.54090   Biso      1.000     O          -0.598993           
         O11       1.0000    0.12600   0.08180   0.61910   Biso      1.000     O          -0.675226           
         O12       1.0000    0.91720   0.84920   0.58330   Biso      1.000     O          -0.717225           
         O13       1.0000    0.76030   0.46860   0.86750   Biso      1.000     O          -0.546222           
         O14       1.0000    0.99150   0.60890   0.93440   Biso      1.000     O          -0.805557           
         O15       1.0000    0.29950   0.47790   0.95690   Biso      1.000     O          -0.614596           
         O16       1.0000    0.45030   0.29770   0.95910   Biso      1.000     O          -0.598993           
         O17       1.0000    0.37400   0.91820   0.11910   Biso      1.000     O          -0.675226           
         O18       1.0000    0.58280   0.15080   0.08330   Biso      1.000     O          -0.717225           
         O19       1.0000    0.73970   0.53140   0.36750   Biso      1.000     O          -0.546222           
         O20       1.0000    0.50850   0.39110   0.43440   Biso      1.000     O          -0.805557           
         O21       1.0000    0.20050   0.52210   0.45690   Biso      1.000     O          -0.614596           
         O22       1.0000    0.04970   0.70230   0.45910   Biso      1.000     O          -0.598993           
         O23       1.0000    0.08280   0.15080   0.41670   Biso      1.000     O          -0.717225           
         O24       1.0000    0.87400   0.91820   0.38090   Biso      1.000     O          -0.675226 