
##########################################################################
#               Crystallographic Information Format file
#               Produced by PyCifRW module
#
#  This is a CIF file.  CIF has been adopted by the International
#  Union of Crystallography as the standard for data archiving and
#  transmission.
#
#  For information on this file format, follow the CIF links at
#  http://www.iucr.org
##########################################################################

data_image0

_cell_length_a                          7.9219
_cell_length_b                          8.3194
_cell_length_c                          17.476
_cell_angle_alpha                       90
_cell_angle_beta                        90
_cell_angle_gamma                       109.008
_symmetry_space_group_name_H-M          'P 1'
_symmetry_int_tables_number             1
loop_
  _symmetry_equiv_pos_as_xyz
         'x, y, z' 
loop_
  _atom_site_label
  _atom_site_occupancy
  _atom_site_fract_x
  _atom_site_fract_y
  _atom_site_fract_z
  _atom_site_thermal_displace_type
  _atom_site_B_iso_or_equiv
  _atom_site_type_symbol
  _atom_site_charge
         C1        1.0000    0.51030   0.87390   0.79130   Biso      1.000     C          0.02671   
         C2        1.0000    0.48970   0.12610   0.20870   Biso      1.000     C          0.026712  
         C3        1.0000    0.58890   0.28380   0.23890   Biso      1.000     C          -0.21239  
         C4        1.0000    0.54570   0.27740   0.31520   Biso      1.000     C          0.072329  
         C5        1.0000    0.59780   0.40560   0.37700   Biso      1.000     C          0.566764  
         C6        1.0000    0.42920   0.43660   0.97450   Biso      1.000     C          0.483939  
         C7        1.0000    0.01920   0.94050   0.63000   Biso      1.000     C          0.625799  
         C8        1.0000    0.01030   0.87390   0.70870   Biso      1.000     C          0.026714  
         C9        1.0000    0.91110   0.71620   0.73890   Biso      1.000     C          -0.21239  
         C10       1.0000    0.95430   0.72260   0.81520   Biso      1.000     C          0.072324  
         C11       1.0000    0.90220   0.59440   0.87700   Biso      1.000     C          0.566771  
         C12       1.0000    0.09780   0.40560   0.12300   Biso      1.000     C          0.566764  
         C13       1.0000    0.04570   0.27740   0.18480   Biso      1.000     C          0.072328  
         C14       1.0000    0.08890   0.28380   0.26110   Biso      1.000     C          -0.212391           
         C15       1.0000    0.98970   0.12610   0.29130   Biso      1.000     C          0.026713  
         C16       1.0000    0.98080   0.05950   0.37000   Biso      1.000     C          0.625799  
         C17       1.0000    0.57080   0.56340   0.02550   Biso      1.000     C          0.483932  
         C18       1.0000    0.40220   0.59440   0.62300   Biso      1.000     C          0.566764  
         C19       1.0000    0.45430   0.72260   0.68480   Biso      1.000     C          0.072328  
         C20       1.0000    0.41110   0.71620   0.76110   Biso      1.000     C          -0.212388           
         C21       1.0000    0.51920   0.94050   0.87000   Biso      1.000     C          0.625802  
         C22       1.0000    0.92920   0.43660   0.52550   Biso      1.000     C          0.483966  
         C23       1.0000    0.48080   0.05950   0.13000   Biso      1.000     C          0.625801  
         C24       1.0000    0.07080   0.56340   0.47450   Biso      1.000     C          0.483971  
         Eu1       1.0000    0.75582   0.28030   0.97778   Biso      1.000     Eu          1.371048  
         Eu2       1.0000    0.25582   0.28030   0.52222   Biso      1.000     Eu          1.371035  
         Eu3       1.0000    0.24418   0.71970   0.02222   Biso      1.000     Eu          1.371047  
         Eu4       1.0000    0.74418   0.71970   0.47778   Biso      1.000     Eu          1.371033  
         H1        1.0000    0.33190   0.62540   0.78730   Biso      1.000     H          0.166824  
         H2        1.0000    0.89000   0.07000   0.13100   Biso      1.000     H          0.311871  
         H3        1.0000    0.16810   0.37460   0.28730   Biso      1.000     H          0.166822  
         H4        1.0000    0.39000   0.07000   0.36900   Biso      1.000     H          0.311871  
         H5        1.0000    0.66810   0.37460   0.21270   Biso      1.000     H          0.166823  
         H6        1.0000    0.11000   0.93000   0.86900   Biso      1.000     H          0.311871  
         H7        1.0000    0.83190   0.62540   0.71270   Biso      1.000     H          0.166823  
         H8        1.0000    0.61000   0.93000   0.63100   Biso      1.000     H          0.311872  
         N1        1.0000    0.61030   0.97010   0.73500   Biso      1.000     N          -0.143126           
         N2        1.0000    0.57840   0.87760   0.67090   Biso      1.000     N          -0.173843           
         N3        1.0000    0.88970   0.02990   0.23500   Biso      1.000     N          -0.14313  
         N4        1.0000    0.92160   0.12240   0.17090   Biso      1.000     N          -0.173844           
         N5        1.0000    0.38970   0.02990   0.26500   Biso      1.000     N          -0.143126           
         N6        1.0000    0.42160   0.12240   0.32910   Biso      1.000     N          -0.173844           
         N7        1.0000    0.11030   0.97010   0.76500   Biso      1.000     N          -0.143131           
         N8        1.0000    0.07840   0.87760   0.82910   Biso      1.000     N          -0.173843           
         O1        1.0000    0.62420   0.08570   0.88170   Biso      1.000     O          -0.53154  
         O2        1.0000    0.26500   0.46970   0.63080   Biso      1.000     O          -0.496308           
         O3        1.0000    0.42290   0.84740   0.91910   Biso      1.000     O          -0.583537           
         O4        1.0000    0.49920   0.61730   0.56370   Biso      1.000     O          -0.611527           
         O5        1.0000    0.70460   0.52000   0.04260   Biso      1.000     O          -0.44941  
         O6        1.0000    0.54820   0.70050   0.04360   Biso      1.000     O          -0.423605           
         O7        1.0000    0.07710   0.15260   0.41910   Biso      1.000     O          -0.583542           
         O8        1.0000    0.87580   0.91430   0.38170   Biso      1.000     O          -0.531547           
         O9        1.0000    0.23500   0.53030   0.13080   Biso      1.000     O          -0.4963   
         O10       1.0000    0.00080   0.38270   0.06370   Biso      1.000     O          -0.611524           
         O11       1.0000    0.20460   0.52000   0.45740   Biso      1.000     O          -0.449385           
         O12       1.0000    0.12420   0.08570   0.61830   Biso      1.000     O          -0.531545           
         O13       1.0000    0.57710   0.15260   0.08090   Biso      1.000     O          -0.58354  
         O14       1.0000    0.37580   0.91430   0.11830   Biso      1.000     O          -0.531543           
         O15       1.0000    0.73500   0.53030   0.36920   Biso      1.000     O          -0.496304           
         O16       1.0000    0.50080   0.38270   0.43630   Biso      1.000     O          -0.611528           
         O17       1.0000    0.29540   0.48000   0.95740   Biso      1.000     O          -0.44941  
         O18       1.0000    0.45180   0.29950   0.95640   Biso      1.000     O          -0.423606           
         O19       1.0000    0.92290   0.84740   0.58090   Biso      1.000     O          -0.583549           
         O20       1.0000    0.76500   0.46970   0.86920   Biso      1.000     O          -0.496308           
         O21       1.0000    0.99920   0.61730   0.93630   Biso      1.000     O          -0.611523           
         O22       1.0000    0.95180   0.29950   0.54360   Biso      1.000     O          -0.423628           
         O23       1.0000    0.04820   0.70050   0.45640   Biso      1.000     O          -0.42363  
         O24       1.0000    0.79540   0.48000   0.54260   Biso      1.000     O          -0.449386 