
##########################################################################
#               Crystallographic Information Format file
#               Produced by PyCifRW module
#
#  This is a CIF file.  CIF has been adopted by the International
#  Union of Crystallography as the standard for data archiving and
#  transmission.
#
#  For information on this file format, follow the CIF links at
#  http://www.iucr.org
##########################################################################

data_image0

_cell_length_a                          7.7664
_cell_length_b                          8.261
_cell_length_c                          17.3239
_cell_angle_alpha                       90
_cell_angle_beta                        90
_cell_angle_gamma                       108.056
_symmetry_space_group_name_H-M          'P 1'
_symmetry_int_tables_number             1
loop_
  _symmetry_equiv_pos_as_xyz
         'x, y, z' 
loop_
  _atom_site_label
  _atom_site_occupancy
  _atom_site_fract_x
  _atom_site_fract_y
  _atom_site_fract_z
  _atom_site_thermal_displace_type
  _atom_site_B_iso_or_equiv
  _atom_site_type_symbol
  _atom_site_charge
         C1        1.0000    0.07200   0.06200   0.47400   Biso      1.000     C          0.528722  
         C2        1.0000    0.01300   0.37700   0.70860   Biso      1.000     C          0.040929  
         C3        1.0000    0.01800   0.44000   0.62850   Biso      1.000     C          0.685787  
         C4        1.0000    0.92800   0.93800   0.52600   Biso      1.000     C          0.5287189999999999  
         C5        1.0000    0.40900   0.10200   0.61920   Biso      1.000     C          0.652504  
         C6        1.0000    0.45500   0.22600   0.68320   Biso      1.000     C          0.029033  
         C7        1.0000    0.41500   0.22000   0.76070   Biso      1.000     C          -0.201624           
         C8        1.0000    0.51300   0.37700   0.79140   Biso      1.000     C          0.037866000000000004          
         C9        1.0000    0.51800   0.44000   0.87150   Biso      1.000     C          0.686362  
         C10       1.0000    0.57200   0.06200   0.02600   Biso      1.000     C          0.528669  
         C11       1.0000    0.09100   0.89800   0.11920   Biso      1.000     C          0.652315  
         C12       1.0000    0.04500   0.77400   0.18320   Biso      1.000     C          0.029439  
         C13       1.0000    0.08500   0.78000   0.26070   Biso      1.000     C          -0.200801           
         C14       1.0000    0.98700   0.62300   0.29140   Biso      1.000     C          0.040936  
         C15       1.0000    0.98200   0.56000   0.37150   Biso      1.000     C          0.685787  
         C16       1.0000    0.90900   0.10200   0.88080   Biso      1.000     C          0.652315  
         C17       1.0000    0.42800   0.93800   0.97400   Biso      1.000     C          0.528646  
         C18       1.0000    0.48200   0.56000   0.12850   Biso      1.000     C          0.686362  
         C19       1.0000    0.48700   0.62300   0.20860   Biso      1.000     C          0.037870999999999995          
         C20       1.0000    0.58500   0.78000   0.23930   Biso      1.000     C          -0.20163499999999998          
         C21       1.0000    0.54500   0.77400   0.31680   Biso      1.000     C          0.029039  
         C22       1.0000    0.59100   0.89800   0.38080   Biso      1.000     C          0.652504  
         C23       1.0000    0.91500   0.22000   0.73930   Biso      1.000     C          -0.200809           
         C24       1.0000    0.95500   0.22600   0.81680   Biso      1.000     C          0.029450999999999998          
         Er1       1.0000    0.74966   0.77484   0.97763   Biso      1.000     Er          2.117828  
         Er2       1.0000    0.24966   0.77484   0.52237   Biso      1.000     Er          2.117434  
         Er3       1.0000    0.25034   0.22516   0.02237   Biso      1.000     Er          2.117823  
         Er4       1.0000    0.75034   0.22516   0.47763   Biso      1.000     Er          2.117435  
         H1        1.0000    0.83640   0.12920   0.71260   Biso      1.000     H          0.16359400000000002           
         H2        1.0000    0.33640   0.12920   0.78740   Biso      1.000     H          0.16361900000000001           
         H3        1.0000    0.16360   0.87080   0.28740   Biso      1.000     H          0.163596  
         H4        1.0000    0.66360   0.87080   0.21260   Biso      1.000     H          0.16361900000000001           
         N1        1.0000    0.39200   0.52780   0.26540   Biso      1.000     N          -0.028262           
         N2        1.0000    0.42100   0.61500   0.33130   Biso      1.000     N          -0.11789300000000001          
         N3        1.0000    0.07900   0.38500   0.83130   Biso      1.000     N          -0.11562  
         N4        1.0000    0.10800   0.47220   0.76540   Biso      1.000     N          -0.031164999999999998         
         N5        1.0000    0.57900   0.38500   0.66870   Biso      1.000     N          -0.117914           
         N6        1.0000    0.89200   0.52780   0.23460   Biso      1.000     N          -0.031192           
         N7        1.0000    0.92100   0.61500   0.16870   Biso      1.000     N          -0.115577           
         N8        1.0000    0.60800   0.47220   0.73460   Biso      1.000     N          -0.028232           
         O1        1.0000    0.92750   0.34640   0.57880   Biso      1.000     O          -0.68537  
         O2        1.0000    0.72860   0.02590   0.37520   Biso      1.000     O          -0.596685           
         O3        1.0000    0.37450   0.40770   0.11860   Biso      1.000     O          -0.7073550000000001           
         O4        1.0000    0.57250   0.65360   0.07880   Biso      1.000     O          -0.685474           
         O5        1.0000    0.54760   0.19860   0.04550   Biso      1.000     O          -0.538945           
         O6        1.0000    0.48960   0.86760   0.43940   Biso      1.000     O          -0.758302           
         O7        1.0000    0.29390   0.98610   0.95760   Biso      1.000     O          -0.584159           
         O8        1.0000    0.01040   0.13240   0.93940   Biso      1.000     O          -0.758059           
         O9        1.0000    0.77140   0.97410   0.87520   Biso      1.000     O          -0.596683           
         O10       1.0000    0.12550   0.59230   0.61860   Biso      1.000     O          -0.706662           
         O11       1.0000    0.04760   0.19860   0.45450   Biso      1.000     O          -0.538704           
         O12       1.0000    0.70610   0.01390   0.04240   Biso      1.000     O          -0.584159           
         O13       1.0000    0.51040   0.13240   0.56060   Biso      1.000     O          -0.758301           
         O14       1.0000    0.27140   0.97410   0.62480   Biso      1.000     O          -0.596683           
         O15       1.0000    0.62550   0.59230   0.88140   Biso      1.000     O          -0.7073520000000001           
         O16       1.0000    0.42750   0.34640   0.92120   Biso      1.000     O          -0.685475           
         O17       1.0000    0.45240   0.80140   0.95450   Biso      1.000     O          -0.538945           
         O18       1.0000    0.98960   0.86760   0.06060   Biso      1.000     O          -0.7580640000000001           
         O19       1.0000    0.22860   0.02590   0.12480   Biso      1.000     O          -0.596685           
         O20       1.0000    0.87450   0.40770   0.38140   Biso      1.000     O          -0.7066600000000001           
         O21       1.0000    0.07250   0.65360   0.42120   Biso      1.000     O          -0.685369           
         O22       1.0000    0.20610   0.01390   0.45760   Biso      1.000     O          -0.582343           
         O23       1.0000    0.79390   0.98610   0.54240   Biso      1.000     O          -0.582343           
         O24       1.0000    0.95240   0.80140   0.54550   Biso      1.000     O          -0.5387029999999999 