
##########################################################################
#               Crystallographic Information Format file
#               Produced by PyCifRW module
#
#  This is a CIF file.  CIF has been adopted by the International
#  Union of Crystallography as the standard for data archiving and
#  transmission.
#
#  For information on this file format, follow the CIF links at
#  http://www.iucr.org
##########################################################################

data_image0

_cell_length_a                          7.9204
_cell_length_b                          8.321
_cell_length_c                          17.4809
_cell_angle_alpha                       90
_cell_angle_beta                        90
_cell_angle_gamma                       109.069
_symmetry_space_group_name_H-M          'P 1'
_symmetry_int_tables_number             1
loop_
  _symmetry_equiv_pos_as_xyz
         'x, y, z' 
loop_
  _atom_site_label
  _atom_site_occupancy
  _atom_site_fract_x
  _atom_site_fract_y
  _atom_site_fract_z
  _atom_site_thermal_displace_type
  _atom_site_B_iso_or_equiv
  _atom_site_type_symbol
  _atom_site_charge
         C1        1.0000    0.44800   0.72400   0.31500   Biso      1.000     C          0.033365  
         C2        1.0000    0.55200   0.27600   0.68500   Biso      1.000     C          0.033363  
         C3        1.0000    0.58500   0.27800   0.76180   Biso      1.000     C          -0.222698           
         C4        1.0000    0.48700   0.12400   0.79090   Biso      1.000     C          0.06562   
         C5        1.0000    0.47900   0.06100   0.87120   Biso      1.000     C          0.62213   
         C6        1.0000    0.92800   0.43500   0.47510   Biso      1.000     C          0.500878  
         C7        1.0000    0.90500   0.59200   0.12270   Biso      1.000     C          0.599194  
         C8        1.0000    0.94800   0.72400   0.18500   Biso      1.000     C          0.033371  
         C9        1.0000    0.91500   0.72200   0.26180   Biso      1.000     C          -0.222698           
         C10       1.0000    0.01300   0.87600   0.29090   Biso      1.000     C          0.065617  
         C11       1.0000    0.02100   0.93900   0.37120   Biso      1.000     C          0.622132  
         C12       1.0000    0.97900   0.06100   0.62880   Biso      1.000     C          0.622124  
         C13       1.0000    0.98700   0.12400   0.70910   Biso      1.000     C          0.065608  
         C14       1.0000    0.08500   0.27800   0.73820   Biso      1.000     C          -0.222688           
         C15       1.0000    0.05200   0.27600   0.81500   Biso      1.000     C          0.033367  
         C16       1.0000    0.09500   0.40800   0.87730   Biso      1.000     C          0.599193  
         C17       1.0000    0.07200   0.56500   0.52490   Biso      1.000     C          0.500879  
         C18       1.0000    0.52100   0.93900   0.12880   Biso      1.000     C          0.622135  
         C19       1.0000    0.51300   0.87600   0.20910   Biso      1.000     C          0.065608  
         C20       1.0000    0.41500   0.72200   0.23820   Biso      1.000     C          -0.222686           
         C21       1.0000    0.40500   0.59200   0.37730   Biso      1.000     C          0.599205  
         C22       1.0000    0.42800   0.43500   0.02490   Biso      1.000     C          0.500877  
         C23       1.0000    0.59500   0.40800   0.62270   Biso      1.000     C          0.599194  
         C24       1.0000    0.57200   0.56500   0.97510   Biso      1.000     C          0.50088   
         Eu1       1.0000    0.74424   0.71999   0.52220   Biso      1.000     Eu          1.386295  
         Eu2       1.0000    0.24424   0.71999   0.97780   Biso      1.000     Eu          1.386292  
         Eu3       1.0000    0.25576   0.28001   0.47780   Biso      1.000     Eu          1.386294  
         Eu4       1.0000    0.75576   0.28001   0.02220   Biso      1.000     Eu          1.386293  
         H1        1.0000    0.33870   0.63210   0.21070   Biso      1.000     H          0.160473  
         H2        1.0000    0.82540   0.92640   0.76130   Biso      1.000     H          0.311214  
         H3        1.0000    0.16130   0.36790   0.71070   Biso      1.000     H          0.160472  
         H4        1.0000    0.32540   0.92640   0.73870   Biso      1.000     H          0.311214  
         H5        1.0000    0.66130   0.36790   0.78930   Biso      1.000     H          0.160473  
         H6        1.0000    0.17460   0.07360   0.23870   Biso      1.000     H          0.311215  
         H7        1.0000    0.83870   0.63210   0.28930   Biso      1.000     H          0.160472  
         H8        1.0000    0.67460   0.07360   0.26130   Biso      1.000     H          0.311214  
         N1        1.0000    0.58300   0.87800   0.32970   Biso      1.000     N          -0.171693           
         N2        1.0000    0.60700   0.96900   0.26550   Biso      1.000     N          -0.123265           
         N3        1.0000    0.91700   0.12200   0.82970   Biso      1.000     N          -0.171688           
         N4        1.0000    0.89300   0.03100   0.76550   Biso      1.000     N          -0.123266           
         N5        1.0000    0.41700   0.12200   0.67030   Biso      1.000     N          -0.171685           
         N6        1.0000    0.39300   0.03100   0.73450   Biso      1.000     N          -0.123271           
         N7        1.0000    0.08300   0.87800   0.17030   Biso      1.000     N          -0.171696           
         N8        1.0000    0.10700   0.96900   0.23450   Biso      1.000     N          -0.123265           
         O1        1.0000    0.26650   0.46960   0.37080   Biso      1.000     O          -0.547293           
         O2        1.0000    0.62560   0.08250   0.11740   Biso      1.000     O          -0.613536           
         O3        1.0000    0.50000   0.61800   0.43610   Biso      1.000     O          -0.573061           
         O4        1.0000    0.42500   0.84750   0.08140   Biso      1.000     O          -0.555556           
         O5        1.0000    0.04870   0.70160   0.54330   Biso      1.000     O          -0.416123           
         O6        1.0000    0.20420   0.52000   0.54250   Biso      1.000     O          -0.455976           
         O7        1.0000    0.00000   0.38200   0.93610   Biso      1.000     O          -0.573044           
         O8        1.0000    0.23350   0.53040   0.87080   Biso      1.000     O          -0.547286           
         O9        1.0000    0.87440   0.91750   0.61740   Biso      1.000     O          -0.613527           
         O10       1.0000    0.07500   0.15250   0.58140   Biso      1.000     O          -0.555542           
         O11       1.0000    0.54870   0.70160   0.95670   Biso      1.000     O          -0.416111           
         O12       1.0000    0.76650   0.46960   0.12920   Biso      1.000     O          -0.547284           
         O13       1.0000    0.50000   0.38200   0.56390   Biso      1.000     O          -0.573046           
         O14       1.0000    0.73350   0.53040   0.62920   Biso      1.000     O          -0.547284           
         O15       1.0000    0.37440   0.91750   0.88260   Biso      1.000     O          -0.613532           
         O16       1.0000    0.57500   0.15250   0.91860   Biso      1.000     O          -0.555547           
         O17       1.0000    0.95130   0.29840   0.45670   Biso      1.000     O          -0.416122           
         O18       1.0000    0.79580   0.48000   0.45750   Biso      1.000     O          -0.455976           
         O19       1.0000    0.00000   0.61800   0.06390   Biso      1.000     O          -0.573044           
         O20       1.0000    0.12560   0.08250   0.38260   Biso      1.000     O          -0.613526           
         O21       1.0000    0.92500   0.84750   0.41860   Biso      1.000     O          -0.555559           
         O22       1.0000    0.29580   0.48000   0.04250   Biso      1.000     O          -0.455989           
         O23       1.0000    0.70420   0.52000   0.95750   Biso      1.000     O          -0.455989           
         O24       1.0000    0.45130   0.29840   0.04330   Biso      1.000     O          -0.41611 