
##########################################################################
#               Crystallographic Information Format file
#               Produced by PyCifRW module
#
#  This is a CIF file.  CIF has been adopted by the International
#  Union of Crystallography as the standard for data archiving and
#  transmission.
#
#  For information on this file format, follow the CIF links at
#  http://www.iucr.org
##########################################################################

data_image0

_cell_length_a                          10.188
_cell_length_b                          10.8386
_cell_length_c                          13.8721
_cell_angle_alpha                       78.673
_cell_angle_beta                        79.281
_cell_angle_gamma                       86.126
_symmetry_space_group_name_H-M          'P 1'
_symmetry_int_tables_number             1
loop_
  _symmetry_equiv_pos_as_xyz
         'x, y, z' 
loop_
  _atom_site_label
  _atom_site_occupancy
  _atom_site_fract_x
  _atom_site_fract_y
  _atom_site_fract_z
  _atom_site_thermal_displace_type
  _atom_site_B_iso_or_equiv
  _atom_site_type_symbol
  _atom_site_charge
         C1        1.0000    0.59520   0.90070   0.21430   Biso      1.000     C          0.587483  
         C2        1.0000    0.35500   0.79550   0.70260   Biso      1.000     C          0.090729  
         C3        1.0000    0.35930   0.61470   0.64270   Biso      1.000     C          0.07429   
         C4        1.0000    0.35490   0.54260   0.73660   Biso      1.000     C          -0.162683           
         C5        1.0000    0.26340   0.11410   0.83260   Biso      1.000     C          -0.005135           
         C6        1.0000    0.15600   0.10460   0.78570   Biso      1.000     C          -0.138689           
         C7        1.0000    0.02700   0.11900   0.83140   Biso      1.000     C          -0.018981           
         C8        1.0000    0.99960   0.14520   0.92830   Biso      1.000     C          -0.194708           
         C9        1.0000    0.10610   0.16110   0.97510   Biso      1.000     C          0.259966  
         C10       1.0000    0.23590   0.14200   0.92910   Biso      1.000     C          -0.157882           
         C11       1.0000    0.90790   0.10710   0.78380   Biso      1.000     C          0.570188  
         C12       1.0000    0.99580   0.29550   0.08850   Biso      1.000     C          0.495284  
         C13       1.0000    0.99160   0.33400   0.18680   Biso      1.000     C          0.035505  
         C14       1.0000    0.98480   0.25230   0.27750   Biso      1.000     C          -0.152782           
         C15       1.0000    0.97560   0.30250   0.36330   Biso      1.000     C          0.10067   
         C16       1.0000    0.34810   0.73170   0.80040   Biso      1.000     C          -0.180454           
         C17       1.0000    0.98450   0.50320   0.27440   Biso      1.000     C          0.08909   
         C18       1.0000    0.72750   0.39450   0.64730   Biso      1.000     C          0.676757  
         C19       1.0000    0.69970   0.47270   0.72690   Biso      1.000     C          -0.0292   
         C20       1.0000    0.67690   0.41650   0.82760   Biso      1.000     C          -0.196741           
         C21       1.0000    0.66300   0.48870   0.90180   Biso      1.000     C          0.275875  
         C22       1.0000    0.66440   0.61940   0.87340   Biso      1.000     C          -0.216775           
         C23       1.0000    0.68230   0.67460   0.77310   Biso      1.000     C          -0.000136           
         C24       1.0000    0.70110   0.60180   0.70040   Biso      1.000     C          -0.148825           
         C25       1.0000    0.68740   0.81100   0.74790   Biso      1.000     C          0.586252  
         C26       1.0000    0.66610   0.48150   0.07900   Biso      1.000     C          0.499058  
         C27       1.0000    0.65160   0.39790   0.18070   Biso      1.000     C          -0.001    
         C28       1.0000    0.65190   0.26830   0.19960   Biso      1.000     C          -0.18044  
         C29       1.0000    0.64500   0.20450   0.29740   Biso      1.000     C          0.090727  
         C30       1.0000    0.64070   0.38530   0.35730   Biso      1.000     C          0.07429   
         C31       1.0000    0.64510   0.45740   0.26340   Biso      1.000     C          -0.162681           
         C32       1.0000    0.98880   0.46220   0.18400   Biso      1.000     C          -0.122703           
         C33       1.0000    0.34840   0.60210   0.81930   Biso      1.000     C          -0.000988           
         C34       1.0000    0.40480   0.09930   0.78570   Biso      1.000     C          0.587482  
         C35       1.0000    0.31260   0.18900   0.25210   Biso      1.000     C          0.586251  
         C36       1.0000    0.00420   0.70450   0.91150   Biso      1.000     C          0.495283  
         C37       1.0000    0.09210   0.89290   0.21620   Biso      1.000     C          0.570189  
         C38       1.0000    0.01120   0.53780   0.81600   Biso      1.000     C          -0.122708           
         C39       1.0000    0.33560   0.38060   0.12660   Biso      1.000     C          -0.216776           
         C40       1.0000    0.76410   0.85800   0.07090   Biso      1.000     C          -0.157882           
         C41       1.0000    0.02440   0.69750   0.63670   Biso      1.000     C          0.100668  
         C42       1.0000    0.89390   0.83890   0.02490   Biso      1.000     C          0.259967  
         C43       1.0000    0.33700   0.51130   0.09820   Biso      1.000     C          0.275876  
         C44       1.0000    0.00040   0.85480   0.07170   Biso      1.000     C          -0.194708           
         C45       1.0000    0.00840   0.66600   0.81320   Biso      1.000     C          0.035509  
         C46       1.0000    0.97300   0.88100   0.16860   Biso      1.000     C          -0.018991           
         C47       1.0000    0.33390   0.51850   0.92100   Biso      1.000     C          0.499058  
         C48       1.0000    0.32310   0.58350   0.17240   Biso      1.000     C          -0.196742           
         C49       1.0000    0.84400   0.89540   0.21430   Biso      1.000     C          -0.138679           
         C50       1.0000    0.30030   0.52730   0.27310   Biso      1.000     C          -0.029199           
         C51       1.0000    0.31770   0.32540   0.22690   Biso      1.000     C          -0.000136           
         C52       1.0000    0.73660   0.88590   0.16740   Biso      1.000     C          -0.005138           
         C53       1.0000    0.29890   0.39820   0.29960   Biso      1.000     C          -0.148826           
         C54       1.0000    0.27250   0.60550   0.35270   Biso      1.000     C          0.676758  
         C55       1.0000    0.01550   0.49680   0.72560   Biso      1.000     C          0.089091  
         C56       1.0000    0.01520   0.74770   0.72250   Biso      1.000     C          -0.152781           
         H1        1.0000    0.96780   0.24770   0.42450   Biso      1.000     H          0.097188  
         H2        1.0000    0.98970   0.51930   0.12430   Biso      1.000     H          0.140776  
         H3        1.0000    0.98680   0.58920   0.27280   Biso      1.000     H          0.090309  
         H4        1.0000    0.65320   0.66950   0.92170   Biso      1.000     H          0.13647   
         H5        1.0000    0.67090   0.32950   0.84560   Biso      1.000     H          0.141934  
         H6        1.0000    0.69400   0.85240   0.03760   Biso      1.000     H          0.146401  
         H7        1.0000    0.71480   0.63990   0.63330   Biso      1.000     H          0.12391   
         H8        1.0000    0.08820   0.84810   0.03900   Biso      1.000     H          0.138734  
         H9        1.0000    0.65660   0.22430   0.14780   Biso      1.000     H          0.12473   
         H10       1.0000    0.82710   0.91210   0.27880   Biso      1.000     H          0.125195  
         H11       1.0000    0.64290   0.11710   0.30970   Biso      1.000     H          0.091494  
         H12       1.0000    0.63720   0.42570   0.41100   Biso      1.000     H          0.09383   
         H13       1.0000    0.64380   0.54470   0.25450   Biso      1.000     H          0.128253  
         H14       1.0000    0.12310   0.15870   0.11540   Biso      1.000     H          0.306309  
         H15       1.0000    0.61930   0.35330   0.01740   Biso      1.000     H          0.310703  
         H16       1.0000    0.01360   0.83430   0.71900   Biso      1.000     H          0.136312  
         H17       1.0000    0.98640   0.16570   0.28100   Biso      1.000     H          0.136312  
         H18       1.0000    0.03220   0.75230   0.57550   Biso      1.000     H          0.097188  
         H19       1.0000    0.01030   0.48070   0.87570   Biso      1.000     H          0.140776  
         H20       1.0000    0.34340   0.77570   0.85220   Biso      1.000     H          0.124731  
         H21       1.0000    0.28520   0.36010   0.36670   Biso      1.000     H          0.12391   
         H22       1.0000    0.35710   0.88290   0.69030   Biso      1.000     H          0.091494  
         H23       1.0000    0.36280   0.57430   0.58900   Biso      1.000     H          0.09383   
         H24       1.0000    0.35620   0.45530   0.74550   Biso      1.000     H          0.128253  
         H25       1.0000    0.01320   0.41080   0.72720   Biso      1.000     H          0.090309  
         H26       1.0000    0.38070   0.64670   0.98260   Biso      1.000     H          0.310703  
         H27       1.0000    0.87690   0.84130   0.88460   Biso      1.000     H          0.306308  
         H28       1.0000    0.32910   0.67050   0.15440   Biso      1.000     H          0.141934  
         H29       1.0000    0.30600   0.14760   0.96240   Biso      1.000     H          0.146401  
         H30       1.0000    0.91180   0.15190   0.96100   Biso      1.000     H          0.138734  
         H31       1.0000    0.17290   0.08790   0.72120   Biso      1.000     H          0.125195  
         H32       1.0000    0.34680   0.33050   0.07830   Biso      1.000     H          0.136471  
         Mn1       1.0000    0.00000   0.50000   0.50000   Biso      1.000     Mn          1.017557  
         N1        1.0000    0.97730   0.42590   0.36200   Biso      1.000     N          -0.276933           
         N2        1.0000    0.64550   0.42950   0.00300   Biso      1.000     N          -0.420551           
         N3        1.0000    0.08200   0.19850   0.06920   Biso      1.000     N          -0.42652  
         N4        1.0000    0.02270   0.57410   0.63800   Biso      1.000     N          -0.276933           
         N5        1.0000    0.35450   0.57050   0.99700   Biso      1.000     N          -0.420551           
         N6        1.0000    0.91800   0.80150   0.93080   Biso      1.000     N          -0.42652  
         N7        1.0000    0.35870   0.73880   0.62570   Biso      1.000     N          -0.283897           
         N8        1.0000    0.64130   0.26120   0.37430   Biso      1.000     N          -0.283897           
         O1        1.0000    0.80040   0.43770   0.56650   Biso      1.000     O          -0.597712           
         O2        1.0000    0.43750   0.09910   0.69240   Biso      1.000     O          -0.664899           
         O3        1.0000    0.67870   0.28810   0.66650   Biso      1.000     O          -0.688846           
         O4        1.0000    0.92360   0.34720   0.03150   Biso      1.000     O          -0.46326  
         O5        1.0000    0.79420   0.11180   0.83400   Biso      1.000     O          -0.587063           
         O6        1.0000    0.70410   0.87370   0.81080   Biso      1.000     O          -0.629719           
         O7        1.0000    0.92840   0.09470   0.69170   Biso      1.000     O          -0.697389           
         O8        1.0000    0.49430   0.08550   0.83830   Biso      1.000     O          -0.61495  
         O9        1.0000    0.69510   0.58860   0.07120   Biso      1.000     O          -0.454399           
         O10       1.0000    0.67450   0.86930   0.66090   Biso      1.000     O          -0.670202           
         O11       1.0000    0.07160   0.90530   0.30830   Biso      1.000     O          -0.697389           
         O12       1.0000    0.20580   0.88820   0.16600   Biso      1.000     O          -0.587063           
         O13       1.0000    0.19960   0.56230   0.43350   Biso      1.000     O          -0.597712           
         O14       1.0000    0.30490   0.41140   0.92880   Biso      1.000     O          -0.4544   
         O15       1.0000    0.32130   0.71190   0.33350   Biso      1.000     O          -0.688846           
         O16       1.0000    0.07640   0.65280   0.96850   Biso      1.000     O          -0.463259           
         O17       1.0000    0.56250   0.90090   0.30760   Biso      1.000     O          -0.6649   
         O18       1.0000    0.50570   0.91450   0.16170   Biso      1.000     O          -0.614951           
         O19       1.0000    0.32550   0.13070   0.33910   Biso      1.000     O          -0.670202           
         O20       1.0000    0.29590   0.12630   0.18920   Biso      1.000     O          -0.629719           
         Sm1       1.0000    0.68014   0.07664   0.70334   Biso      1.000     Sm          2.020551  
         Sm2       1.0000    0.31986   0.92336   0.29666   Biso      1.000     Sm          2.020551 