
##########################################################################
#               Crystallographic Information Format file
#               Produced by PyCifRW module
#
#  This is a CIF file.  CIF has been adopted by the International
#  Union of Crystallography as the standard for data archiving and
#  transmission.
#
#  For information on this file format, follow the CIF links at
#  http://www.iucr.org
##########################################################################

data_image0

_cell_length_a                          17.927
_cell_length_b                          12.869
_cell_length_c                          11.055
_cell_angle_alpha                       90
_cell_angle_beta                        93.14
_cell_angle_gamma                       90
_symmetry_space_group_name_H-M          'P 1'
_symmetry_int_tables_number             1
loop_
  _symmetry_equiv_pos_as_xyz
         'x, y, z' 
loop_
  _atom_site_label
  _atom_site_occupancy
  _atom_site_fract_x
  _atom_site_fract_y
  _atom_site_fract_z
  _atom_site_thermal_displace_type
  _atom_site_B_iso_or_equiv
  _atom_site_type_symbol
  _atom_site_charge
         C1        1.0000    0.63490   0.77440   0.17030   Biso      1.000     C          0.596396  
         C2        1.0000    0.30120   0.70700   0.27900   Biso      1.000     C          -0.021752           
         C3        1.0000    0.75280   0.67080   0.14780   Biso      1.000     C          -0.173596           
         C4        1.0000    0.63490   0.22560   0.67030   Biso      1.000     C          0.596396  
         C5        1.0000    0.69880   0.29300   0.72100   Biso      1.000     C          -0.021752           
         C6        1.0000    0.75280   0.32920   0.64780   Biso      1.000     C          -0.173593           
         C7        1.0000    0.20120   0.18310   0.34700   Biso      1.000     C          -0.106341           
         C8        1.0000    0.81110   0.38840   0.70470   Biso      1.000     C          0.140579  
         C9        1.0000    0.81250   0.41010   0.82850   Biso      1.000     C          0.135998  
         C10       1.0000    0.75690   0.37470   0.90100   Biso      1.000     C          -0.165972           
         C11       1.0000    0.70120   0.31690   0.84700   Biso      1.000     C          -0.10632799999999999          
         C12       1.0000    0.25690   0.12530   0.40100   Biso      1.000     C          -0.165961           
         C13       1.0000    0.31250   0.08990   0.32850   Biso      1.000     C          0.135997  
         C14       1.0000    0.31110   0.11160   0.20470   Biso      1.000     C          0.140579  
         C15       1.0000    0.25280   0.17080   0.14780   Biso      1.000     C          -0.173596           
         C16       1.0000    0.19880   0.20700   0.22100   Biso      1.000     C          -0.021747           
         C17       1.0000    0.13490   0.27440   0.17030   Biso      1.000     C          0.596395  
         C18       1.0000    0.13490   0.72560   0.67030   Biso      1.000     C          0.596396  
         C19       1.0000    0.19880   0.79300   0.72100   Biso      1.000     C          -0.021752           
         C20       1.0000    0.25280   0.82920   0.64780   Biso      1.000     C          -0.173593           
         C21       1.0000    0.70120   0.68310   0.34700   Biso      1.000     C          -0.106341           
         C22       1.0000    0.31110   0.88840   0.70470   Biso      1.000     C          0.14058099999999998           
         C23       1.0000    0.31250   0.91010   0.82850   Biso      1.000     C          0.135998  
         C24       1.0000    0.25690   0.87470   0.90100   Biso      1.000     C          -0.165973           
         C25       1.0000    0.20120   0.81690   0.84700   Biso      1.000     C          -0.10632799999999999          
         C26       1.0000    0.75690   0.62530   0.40100   Biso      1.000     C          -0.165961           
         C27       1.0000    0.81250   0.58990   0.32850   Biso      1.000     C          0.135997  
         C28       1.0000    0.81110   0.61160   0.20470   Biso      1.000     C          0.14058199999999998           
         C29       1.0000    0.24720   0.67080   0.35220   Biso      1.000     C          -0.173593           
         C30       1.0000    0.18890   0.61160   0.29530   Biso      1.000     C          0.140579  
         C31       1.0000    0.36510   0.77440   0.32970   Biso      1.000     C          0.596396  
         C32       1.0000    0.74720   0.17080   0.35220   Biso      1.000     C          -0.173596           
         C33       1.0000    0.36510   0.22560   0.82970   Biso      1.000     C          0.596396  
         C34       1.0000    0.30120   0.29300   0.77900   Biso      1.000     C          -0.021752           
         C35       1.0000    0.24720   0.32920   0.85220   Biso      1.000     C          -0.173593           
         C36       1.0000    0.79880   0.18310   0.15300   Biso      1.000     C          -0.10634  
         C37       1.0000    0.18890   0.38840   0.79530   Biso      1.000     C          0.140579  
         C38       1.0000    0.18750   0.41010   0.67150   Biso      1.000     C          0.135998  
         C39       1.0000    0.24310   0.37470   0.59900   Biso      1.000     C          -0.165973           
         C40       1.0000    0.29880   0.31690   0.65300   Biso      1.000     C          -0.10632799999999999          
         C41       1.0000    0.74310   0.12530   0.09900   Biso      1.000     C          -0.165962           
         C42       1.0000    0.68750   0.08990   0.17150   Biso      1.000     C          0.135995  
         C43       1.0000    0.68890   0.11160   0.29530   Biso      1.000     C          0.140579  
         C44       1.0000    0.18750   0.58990   0.17150   Biso      1.000     C          0.135995  
         C45       1.0000    0.80120   0.20700   0.27900   Biso      1.000     C          -0.021746           
         C46       1.0000    0.86510   0.27440   0.32970   Biso      1.000     C          0.596395  
         C47       1.0000    0.69880   0.70700   0.22100   Biso      1.000     C          -0.021747           
         C48       1.0000    0.24310   0.62530   0.09900   Biso      1.000     C          -0.165973           
         C49       1.0000    0.86510   0.72560   0.82970   Biso      1.000     C          0.596396  
         C50       1.0000    0.79880   0.81690   0.65300   Biso      1.000     C          -0.10634  
         C51       1.0000    0.80120   0.79300   0.77900   Biso      1.000     C          -0.02175  
         C52       1.0000    0.74720   0.82920   0.85220   Biso      1.000     C          -0.173593           
         C53       1.0000    0.29880   0.68310   0.15300   Biso      1.000     C          -0.10632799999999999          
         C54       1.0000    0.68890   0.88840   0.79530   Biso      1.000     C          0.140579  
         C55       1.0000    0.68750   0.91010   0.67150   Biso      1.000     C          0.135997  
         C56       1.0000    0.74310   0.87470   0.59900   Biso      1.000     C          -0.165961           
         H1        1.0000    0.33660   0.70780   0.10640   Biso      1.000     H          0.11820499999999999           
         H2        1.0000    0.75090   0.68460   0.06520   Biso      1.000     H          0.14044600000000002           
         H3        1.0000    0.24210   0.61000   0.01670   Biso      1.000     H          0.13125   
         H4        1.0000    0.96200   0.36000   0.03300   Biso      1.000     H          0.42102   
         H5        1.0000    0.75790   0.61000   0.48330   Biso      1.000     H          0.131249  
         H6        1.0000    0.74210   0.11000   0.01670   Biso      1.000     H          0.131249  
         H7        1.0000    0.53800   0.86000   0.46700   Biso      1.000     H          0.421021  
         H8        1.0000    0.66340   0.70780   0.39360   Biso      1.000     H          0.11820599999999999           
         H9        1.0000    0.46200   0.86000   0.03300   Biso      1.000     H          0.42102   
         H10       1.0000    0.74910   0.18460   0.43480   Biso      1.000     H          0.14044600000000002           
         H11       1.0000    0.25090   0.18460   0.06520   Biso      1.000     H          0.14044600000000002           
         H12       1.0000    0.25790   0.11000   0.48330   Biso      1.000     H          0.131249  
         H13       1.0000    0.16340   0.20780   0.39360   Biso      1.000     H          0.11820599999999999           
         H14       1.0000    0.24910   0.68460   0.43480   Biso      1.000     H          0.14044500000000001           
         H15       1.0000    0.03800   0.36000   0.46700   Biso      1.000     H          0.42102   
         H16       1.0000    0.25090   0.81540   0.56520   Biso      1.000     H          0.14044600000000002           
         H17       1.0000    0.74210   0.89000   0.51670   Biso      1.000     H          0.131249  
         H18       1.0000    0.74910   0.81540   0.93480   Biso      1.000     H          0.14044500000000001           
         H19       1.0000    0.46200   0.14000   0.53300   Biso      1.000     H          0.421021  
         H20       1.0000    0.66340   0.29220   0.89360   Biso      1.000     H          0.11820499999999999           
         H21       1.0000    0.75790   0.39000   0.98330   Biso      1.000     H          0.13125   
         H22       1.0000    0.83660   0.79220   0.60640   Biso      1.000     H          0.11820599999999999           
         H23       1.0000    0.25790   0.89000   0.98330   Biso      1.000     H          0.13125   
         H24       1.0000    0.03800   0.64000   0.96700   Biso      1.000     H          0.42102   
         H25       1.0000    0.96200   0.64000   0.53300   Biso      1.000     H          0.42102   
         H26       1.0000    0.75090   0.31540   0.56520   Biso      1.000     H          0.14044600000000002           
         H27       1.0000    0.53800   0.14000   0.96700   Biso      1.000     H          0.42102   
         H28       1.0000    0.83660   0.20780   0.10640   Biso      1.000     H          0.11820599999999999           
         H29       1.0000    0.33660   0.29220   0.60640   Biso      1.000     H          0.11820499999999999           
         H30       1.0000    0.24210   0.39000   0.51670   Biso      1.000     H          0.13125   
         H31       1.0000    0.24910   0.31540   0.93480   Biso      1.000     H          0.14044600000000002           
         H32       1.0000    0.16340   0.79220   0.89360   Biso      1.000     H          0.11820499999999999           
         N1        1.0000    0.59047   0.01760   0.24610   Biso      1.000     N          -0.034105           
         N2        1.0000    0.62593   0.96870   0.64440   Biso      1.000     N          -0.231048           
         N3        1.0000    0.59047   0.98240   0.74610   Biso      1.000     N          -0.034079000000000005         
         N4        1.0000    0.37407   0.03130   0.35560   Biso      1.000     N          -0.231048           
         N5        1.0000    0.09047   0.51760   0.24610   Biso      1.000     N          -0.034105           
         N6        1.0000    0.12728   0.56480   0.33890   Biso      1.000     N          -0.22608699999999998          
         N7        1.0000    0.40953   0.01760   0.25390   Biso      1.000     N          -0.034079000000000005         
         N8        1.0000    0.12593   0.53130   0.14440   Biso      1.000     N          -0.23102199999999998          
         N9        1.0000    0.62728   0.06480   0.33890   Biso      1.000     N          -0.22608699999999998          
         N10       1.0000    0.12593   0.46870   0.64440   Biso      1.000     N          -0.231048           
         N11       1.0000    0.09047   0.48240   0.74610   Biso      1.000     N          -0.034079000000000005         
         N12       1.0000    0.12728   0.43520   0.83890   Biso      1.000     N          -0.22608899999999998          
         N13       1.0000    0.62728   0.93520   0.83890   Biso      1.000     N          -0.22608899999999998          
         N14       1.0000    0.37272   0.06480   0.16110   Biso      1.000     N          -0.22609  
         N15       1.0000    0.37407   0.96870   0.85560   Biso      1.000     N          -0.23105100000000003          
         N16       1.0000    0.87407   0.46870   0.85560   Biso      1.000     N          -0.231048           
         N17       1.0000    0.87272   0.56480   0.16110   Biso      1.000     N          -0.226117           
         N18       1.0000    0.62593   0.03130   0.14440   Biso      1.000     N          -0.231023           
         N19       1.0000    0.87407   0.53130   0.35560   Biso      1.000     N          -0.23105100000000003          
         N20       1.0000    0.90953   0.48240   0.75390   Biso      1.000     N          -0.034079000000000005         
         N21       1.0000    0.37272   0.93520   0.66110   Biso      1.000     N          -0.226117           
         N22       1.0000    0.90953   0.51760   0.25390   Biso      1.000     N          -0.03405  
         N23       1.0000    0.40953   0.98240   0.75390   Biso      1.000     N          -0.03405  
         N24       1.0000    0.87272   0.43520   0.66110   Biso      1.000     N          -0.22609  
         O1        1.0000    0.01720   0.41460   0.43490   Biso      1.000     O          -0.863425           
         O2        1.0000    0.14022   0.68700   0.56690   Biso      1.000     O          -0.564717           
         O3        1.0000    0.48280   0.08540   0.56510   Biso      1.000     O          -0.863426           
         O4        1.0000    0.35978   0.18700   0.93310   Biso      1.000     O          -0.564716           
         O5        1.0000    0.85978   0.31300   0.43310   Biso      1.000     O          -0.564716           
         O6        1.0000    0.41789   0.21230   0.76100   Biso      1.000     O          -0.555552           
         O7        1.0000    0.91789   0.28770   0.26100   Biso      1.000     O          -0.555552           
         O8        1.0000    0.51720   0.91460   0.43490   Biso      1.000     O          -0.863426           
         O9        1.0000    0.41789   0.78770   0.26100   Biso      1.000     O          -0.555552           
         O10       1.0000    0.35978   0.81300   0.43310   Biso      1.000     O          -0.564716           
         O11       1.0000    0.64022   0.81300   0.06690   Biso      1.000     O          -0.564717           
         O12       1.0000    0.98280   0.58540   0.56510   Biso      1.000     O          -0.863426           
         O13       1.0000    0.51720   0.08540   0.93490   Biso      1.000     O          -0.863426           
         O14       1.0000    0.58211   0.78770   0.23900   Biso      1.000     O          -0.555551           
         O15       1.0000    0.48280   0.91460   0.06510   Biso      1.000     O          -0.863425           
         O16       1.0000    0.58211   0.21230   0.73900   Biso      1.000     O          -0.555551           
         O17       1.0000    0.64022   0.18700   0.56690   Biso      1.000     O          -0.564717           
         O18       1.0000    0.85978   0.68700   0.93310   Biso      1.000     O          -0.564716           
         O19       1.0000    0.91789   0.71230   0.76100   Biso      1.000     O          -0.555552           
         O20       1.0000    0.98280   0.41460   0.06510   Biso      1.000     O          -0.863425           
         O21       1.0000    0.08211   0.28770   0.23900   Biso      1.000     O          -0.555551           
         O22       1.0000    0.14022   0.31300   0.06690   Biso      1.000     O          -0.564716           
         O23       1.0000    0.08211   0.71230   0.73900   Biso      1.000     O          -0.555552           
         O24       1.0000    0.01720   0.58540   0.93490   Biso      1.000     O          -0.863426           
         Zn1       1.0000    0.00000   0.60186   0.75000   Biso      1.000     Zn          0.870074  
         Zn2       1.0000    0.50000   0.10186   0.75000   Biso      1.000     Zn          0.870072  
         Zn3       1.0000    0.41923   0.05185   0.99894   Biso      1.000     Zn          0.823624  
         Zn4       1.0000    0.41923   0.94815   0.49894   Biso      1.000     Zn          0.823627  
         Zn5       1.0000    0.08077   0.44815   0.00106   Biso      1.000     Zn          0.823622  
         Zn6       1.0000    0.50000   0.89814   0.25000   Biso      1.000     Zn          0.8700760000000001  
         Zn7       1.0000    0.58077   0.94815   0.00106   Biso      1.000     Zn          0.823622  
         Zn8       1.0000    0.08077   0.55185   0.50106   Biso      1.000     Zn          0.823625  
         Zn9       1.0000    0.58077   0.05185   0.50106   Biso      1.000     Zn          0.823625  
         Zn10      1.0000    0.91923   0.55185   0.99894   Biso      1.000     Zn          0.823627  
         Zn11      1.0000    0.91923   0.44815   0.49894   Biso      1.000     Zn          0.823625  
         Zn12      1.0000    0.00000   0.39814   0.25000   Biso      1.000     Zn          0.870074 