
##########################################################################
#               Crystallographic Information Format file
#               Produced by PyCifRW module
#
#  This is a CIF file.  CIF has been adopted by the International
#  Union of Crystallography as the standard for data archiving and
#  transmission.
#
#  For information on this file format, follow the CIF links at
#  http://www.iucr.org
##########################################################################

data_image0

_cell_length_a                          10.5826
_cell_length_b                          12.0075
_cell_length_c                          18.147
_cell_angle_alpha                       90
_cell_angle_beta                        90
_cell_angle_gamma                       110.074
_symmetry_space_group_name_H-M          'P 1'
_symmetry_int_tables_number             1
loop_
  _symmetry_equiv_pos_as_xyz
         'x, y, z' 
loop_
  _atom_site_label
  _atom_site_occupancy
  _atom_site_fract_x
  _atom_site_fract_y
  _atom_site_fract_z
  _atom_site_thermal_displace_type
  _atom_site_B_iso_or_equiv
  _atom_site_type_symbol
  _atom_site_charge
         C1        1.0000    0.80700   0.35900   0.73150   Biso      1.000     C          -0.19889600000000002          
         C2        1.0000    0.95530   0.29380   0.28760   Biso      1.000     C          -0.192241           
         C3        1.0000    0.86750   0.34490   0.24080   Biso      1.000     C          -0.19903900000000002          
         C4        1.0000    0.77510   0.25310   0.19070   Biso      1.000     C          -0.10895  
         C5        1.0000    0.69300   0.14100   0.23150   Biso      1.000     C          -0.19889600000000002          
         C6        1.0000    0.78380   0.09070   0.27610   Biso      1.000     C          -0.209783           
         C7        1.0000    0.87240   0.18320   0.32870   Biso      1.000     C          -0.124063           
         C8        1.0000    0.95570   0.13540   0.38060   Biso      1.000     C          0.678109  
         C9        1.0000    0.23330   0.42440   0.01180   Biso      1.000     C          0.666534  
         C10       1.0000    0.37990   0.03330   0.48700   Biso      1.000     C          -0.11713299999999999          
         C11       1.0000    0.81890   0.20300   0.64430   Biso      1.000     C          0.613175  
         C12       1.0000    0.12810   0.57850   0.02830   Biso      1.000     C          -0.19767200000000001          
         C13       1.0000    0.12010   0.46670   0.98700   Biso      1.000     C          -0.11713299999999999          
         C14       1.0000    0.54470   0.20620   0.78760   Biso      1.000     C          -0.192241           
         C15       1.0000    0.63250   0.15510   0.74080   Biso      1.000     C          -0.19903900000000002          
         C16       1.0000    0.72490   0.24690   0.69070   Biso      1.000     C          -0.10895  
         C17       1.0000    0.62810   0.07850   0.47170   Biso      1.000     C          -0.19767200000000001          
         C18       1.0000    0.71620   0.40930   0.77610   Biso      1.000     C          -0.209783           
         C19       1.0000    0.62760   0.31680   0.82870   Biso      1.000     C          -0.124063           
         C20       1.0000    0.98280   0.37400   0.99550   Biso      1.000     C          -0.192191           
         C21       1.0000    0.37190   0.92150   0.52830   Biso      1.000     C          -0.19767200000000001          
         C22       1.0000    0.51720   0.12600   0.49550   Biso      1.000     C          -0.192191           
         C23       1.0000    0.68110   0.29700   0.14430   Biso      1.000     C          0.613175  
         C24       1.0000    0.13250   0.65510   0.75920   Biso      1.000     C          -0.19903900000000002          
         C25       1.0000    0.22490   0.74690   0.80930   Biso      1.000     C          -0.10895  
         C26       1.0000    0.30700   0.85900   0.76850   Biso      1.000     C          -0.19889600000000002          
         C27       1.0000    0.21620   0.90930   0.72390   Biso      1.000     C          -0.209783           
         C28       1.0000    0.12760   0.81680   0.67130   Biso      1.000     C          -0.12406199999999999          
         C29       1.0000    0.04430   0.86460   0.61940   Biso      1.000     C          0.678109  
         C30       1.0000    0.76670   0.57560   0.98820   Biso      1.000     C          0.666534  
         C31       1.0000    0.18110   0.79700   0.35570   Biso      1.000     C          0.613175  
         C32       1.0000    0.01720   0.62600   0.00450   Biso      1.000     C          -0.192191           
         C33       1.0000    0.87190   0.42150   0.97170   Biso      1.000     C          -0.19767200000000001          
         C34       1.0000    0.87990   0.53330   0.01300   Biso      1.000     C          -0.11713299999999999          
         C35       1.0000    0.45530   0.79380   0.21240   Biso      1.000     C          -0.192241           
         C36       1.0000    0.36750   0.84490   0.25920   Biso      1.000     C          -0.19903900000000002          
         C37       1.0000    0.27510   0.75310   0.30930   Biso      1.000     C          -0.10895  
         C38       1.0000    0.19300   0.64100   0.26850   Biso      1.000     C          -0.19889600000000002          
         C39       1.0000    0.28380   0.59070   0.22390   Biso      1.000     C          -0.209783           
         C40       1.0000    0.37240   0.68320   0.17130   Biso      1.000     C          -0.12406199999999999          
         C41       1.0000    0.45570   0.63540   0.11940   Biso      1.000     C          0.678109  
         C42       1.0000    0.26670   0.07560   0.51180   Biso      1.000     C          0.666534  
         C43       1.0000    0.54430   0.36460   0.88060   Biso      1.000     C          0.678109  
         C44       1.0000    0.04470   0.70620   0.71240   Biso      1.000     C          -0.192241           
         C45       1.0000    0.62010   0.96670   0.51300   Biso      1.000     C          -0.11713299999999999          
         C46       1.0000    0.73330   0.92440   0.48820   Biso      1.000     C          0.666534  
         C47       1.0000    0.31890   0.70300   0.85570   Biso      1.000     C          0.613175  
         C48       1.0000    0.48280   0.87400   0.50450   Biso      1.000     C          -0.192191           
         H1        1.0000    0.78480   0.36120   0.98050   Biso      1.000     H          0.106993  
         H2        1.0000    0.00600   0.35320   0.32280   Biso      1.000     H          0.108649  
         H3        1.0000    0.01900   0.27510   0.25590   Biso      1.000     H          0.101892  
         H4        1.0000    0.92490   0.41010   0.21140   Biso      1.000     H          0.103467  
         H5        1.0000    0.81430   0.37580   0.27300   Biso      1.000     H          0.10385   
         H6        1.0000    0.83300   0.23000   0.15600   Biso      1.000     H          0.093428  
         H7        1.0000    0.63010   0.15860   0.26430   Biso      1.000     H          0.098098  
         H8        1.0000    0.64160   0.08210   0.19620   Biso      1.000     H          0.108383  
         H9        1.0000    0.84000   0.06490   0.24280   Biso      1.000     H          0.107813  
         H10       1.0000    0.72870   0.02230   0.30390   Biso      1.000     H          0.098696  
         H11       1.0000    0.81100   0.20700   0.36000   Biso      1.000     H          0.09349400000000001           
         H12       1.0000    0.97750   0.30540   0.96580   Biso      1.000     H          0.10940699999999999           
         H13       1.0000    0.96900   0.34900   0.04660   Biso      1.000     H          0.10700599999999999           
         H14       1.0000    0.21520   0.63880   0.01950   Biso      1.000     H          0.106993  
         H15       1.0000    0.36600   0.01300   0.43500   Biso      1.000     H          0.103897  
         H16       1.0000    0.13400   0.48700   0.93500   Biso      1.000     H          0.103897  
         H17       1.0000    0.49400   0.14680   0.82280   Biso      1.000     H          0.108649  
         H18       1.0000    0.48100   0.22490   0.75590   Biso      1.000     H          0.101892  
         H19       1.0000    0.57510   0.08990   0.71140   Biso      1.000     H          0.103467  
         H20       1.0000    0.68570   0.12420   0.77300   Biso      1.000     H          0.10385   
         H21       1.0000    0.66700   0.27000   0.65600   Biso      1.000     H          0.093428  
         H22       1.0000    0.86990   0.34140   0.76430   Biso      1.000     H          0.098098  
         H23       1.0000    0.85840   0.41790   0.69620   Biso      1.000     H          0.108383  
         H24       1.0000    0.66000   0.43510   0.74280   Biso      1.000     H          0.107813  
         H25       1.0000    0.77130   0.47770   0.80390   Biso      1.000     H          0.098696  
         H26       1.0000    0.68900   0.29300   0.86000   Biso      1.000     H          0.09349400000000001           
         H27       1.0000    0.12020   0.56200   0.08080   Biso      1.000     H          0.101651  
         H28       1.0000    0.86600   0.51300   0.06500   Biso      1.000     H          0.103897  
         H29       1.0000    0.28480   0.86120   0.51950   Biso      1.000     H          0.106993  
         H30       1.0000    0.53100   0.15100   0.54660   Biso      1.000     H          0.10700599999999999           
         H31       1.0000    0.87980   0.43800   0.91920   Biso      1.000     H          0.101651  
         H32       1.0000    0.03100   0.65100   0.95340   Biso      1.000     H          0.10700699999999999           
         H33       1.0000    0.02250   0.69460   0.03420   Biso      1.000     H          0.10940599999999999           
         H34       1.0000    0.18900   0.79300   0.64000   Biso      1.000     H          0.09349400000000001           
         H35       1.0000    0.27130   0.97770   0.69610   Biso      1.000     H          0.098696  
         H36       1.0000    0.16000   0.93510   0.75720   Biso      1.000     H          0.107813  
         H37       1.0000    0.35840   0.91790   0.80380   Biso      1.000     H          0.108383  
         H38       1.0000    0.50600   0.85320   0.17720   Biso      1.000     H          0.108649  
         H39       1.0000    0.16700   0.77000   0.84400   Biso      1.000     H          0.093427  
         H40       1.0000    0.18570   0.62420   0.72700   Biso      1.000     H          0.10385   
         H41       1.0000    0.07510   0.58990   0.78860   Biso      1.000     H          0.103467  
         H42       1.0000    0.98100   0.72490   0.74410   Biso      1.000     H          0.101892  
         H43       1.0000    0.99400   0.64680   0.67720   Biso      1.000     H          0.108649  
         H44       1.0000    0.37980   0.93800   0.58080   Biso      1.000     H          0.101651  
         H45       1.0000    0.63400   0.98700   0.56500   Biso      1.000     H          0.103897  
         H46       1.0000    0.62020   0.06200   0.41920   Biso      1.000     H          0.101651  
         H47       1.0000    0.46900   0.84900   0.45340   Biso      1.000     H          0.10700699999999999           
         H48       1.0000    0.47750   0.80540   0.53420   Biso      1.000     H          0.10940699999999999           
         H49       1.0000    0.51900   0.77510   0.24410   Biso      1.000     H          0.101892  
         H50       1.0000    0.42490   0.91010   0.28860   Biso      1.000     H          0.103467  
         H51       1.0000    0.31430   0.87580   0.22700   Biso      1.000     H          0.10385   
         H52       1.0000    0.33300   0.73000   0.34400   Biso      1.000     H          0.093427  
         H53       1.0000    0.13010   0.65860   0.23570   Biso      1.000     H          0.098098  
         H54       1.0000    0.14160   0.58210   0.30380   Biso      1.000     H          0.108383  
         H55       1.0000    0.34000   0.56490   0.25720   Biso      1.000     H          0.107813  
         H56       1.0000    0.22870   0.52230   0.19610   Biso      1.000     H          0.098696  
         H57       1.0000    0.31100   0.70700   0.14000   Biso      1.000     H          0.09349400000000001           
         H58       1.0000    0.52250   0.19460   0.46580   Biso      1.000     H          0.10940599999999999           
         H59       1.0000    0.71520   0.13880   0.48050   Biso      1.000     H          0.106993  
         H60       1.0000    0.36990   0.84140   0.73570   Biso      1.000     H          0.098098  
         La1       1.0000    0.53527   0.64498   0.93143   Biso      1.000     La          1.924697  
         La2       1.0000    0.03527   0.14498   0.56857   Biso      1.000     La          1.924697  
         La3       1.0000    0.46473   0.35502   0.06857   Biso      1.000     La          1.924697  
         La4       1.0000    0.96473   0.85502   0.43143   Biso      1.000     La          1.924697  
         O1        1.0000    0.37600   0.76340   0.90960   Biso      1.000     O          -0.647652           
         O2        1.0000    0.33660   0.60870   0.83850   Biso      1.000     O          -0.625147           
         O3        1.0000    0.84940   0.97920   0.51280   Biso      1.000     O          -0.700584           
         O4        1.0000    0.03380   0.96270   0.63530   Biso      1.000     O          -0.639158           
         O5        1.0000    0.78880   0.66110   0.94530   Biso      1.000     O          -0.623797           
         O6        1.0000    0.50490   0.69660   0.06390   Biso      1.000     O          -0.652933           
         O7        1.0000    0.12400   0.73660   0.40960   Biso      1.000     O          -0.647652           
         O8        1.0000    0.16340   0.89130   0.33850   Biso      1.000     O          -0.625147           
         O9        1.0000    0.65060   0.52080   0.01280   Biso      1.000     O          -0.700584           
         O10       1.0000    0.46620   0.53730   0.13530   Biso      1.000     O          -0.639158           
         O11       1.0000    0.28880   0.16110   0.55470   Biso      1.000     O          -0.623797           
         O12       1.0000    0.00490   0.19660   0.43610   Biso      1.000     O          -0.652933           
         O13       1.0000    0.62400   0.23660   0.09040   Biso      1.000     O          -0.647652           
         O14       1.0000    0.66340   0.39130   0.16150   Biso      1.000     O          -0.625147           
         O15       1.0000    0.15060   0.02080   0.48720   Biso      1.000     O          -0.700584           
         O16       1.0000    0.96620   0.03730   0.36470   Biso      1.000     O          -0.639158           
         O17       1.0000    0.21120   0.33890   0.05470   Biso      1.000     O          -0.623797           
         O18       1.0000    0.49510   0.30340   0.93610   Biso      1.000     O          -0.652933           
         O19       1.0000    0.87600   0.26340   0.59040   Biso      1.000     O          -0.647652           
         O20       1.0000    0.83660   0.10870   0.66150   Biso      1.000     O          -0.625147           
         O21       1.0000    0.34940   0.47920   0.98720   Biso      1.000     O          -0.700584           
         O22       1.0000    0.53380   0.46270   0.86470   Biso      1.000     O          -0.639158           
         O23       1.0000    0.99510   0.80340   0.56390   Biso      1.000     O          -0.652933           
         O24       1.0000    0.71120   0.83890   0.44530   Biso      1.000     O          -0.623797 