
##########################################################################
#               Crystallographic Information Format file
#               Produced by PyCifRW module
#
#  This is a CIF file.  CIF has been adopted by the International
#  Union of Crystallography as the standard for data archiving and
#  transmission.
#
#  For information on this file format, follow the CIF links at
#  http://www.iucr.org
##########################################################################

data_image0

_cell_length_a                          13.063
_cell_length_b                          13.129
_cell_length_c                          22.324
_cell_angle_alpha                       90
_cell_angle_beta                        90
_cell_angle_gamma                       95.149
_symmetry_space_group_name_H-M          'P 1'
_symmetry_int_tables_number             1
loop_
  _symmetry_equiv_pos_as_xyz
         'x, y, z' 
loop_
  _atom_site_label
  _atom_site_occupancy
  _atom_site_fract_x
  _atom_site_fract_y
  _atom_site_fract_z
  _atom_site_thermal_displace_type
  _atom_site_B_iso_or_equiv
  _atom_site_type_symbol
  _atom_site_charge
         C1        1.0000    0.79200   0.37490   0.36370   Biso      1.000     C          0.151022  
         C2        1.0000    0.77200   0.18410   0.63610   Biso      1.000     C          0.599892  
         C3        1.0000    0.96950   0.39420   0.65030   Biso      1.000     C          0.591291  
         C4        1.0000    0.76300   0.57510   0.64510   Biso      1.000     C          0.588383  
         C5        1.0000    0.73960   0.29850   0.39650   Biso      1.000     C          -0.17188699999999998          
         C6        1.0000    0.74046   0.30644   0.45856   Biso      1.000     C          0.09992899999999999           
         C7        1.0000    0.71030   0.82800   0.71450   Biso      1.000     C          -0.147223           
         C8        1.0000    0.73920   0.89730   0.66710   Biso      1.000     C          0.080466  
         C9        1.0000    0.73820   0.00490   0.67400   Biso      1.000     C          -0.167131           
         C10       1.0000    0.76900   0.07030   0.62820   Biso      1.000     C          -0.015941999999999998         
         C11       1.0000    0.79740   0.03130   0.57160   Biso      1.000     C          -0.120022           
         C12       1.0000    0.84630   0.45720   0.39210   Biso      1.000     C          -0.17060799999999998          
         C13       1.0000    0.79680   0.92810   0.56340   Biso      1.000     C          -0.148006           
         C14       1.0000    0.77030   0.85860   0.61140   Biso      1.000     C          0.086056  
         C15       1.0000    0.77370   0.75210   0.60490   Biso      1.000     C          -0.171006           
         C16       1.0000    0.74960   0.68740   0.65200   Biso      1.000     C          -0.023096000000000002         
         C17       1.0000    0.25954   0.69356   0.95856   Biso      1.000     C          0.09992999999999999           
         C18       1.0000    0.26040   0.70150   0.89650   Biso      1.000     C          -0.17189200000000002          
         C19       1.0000    0.20800   0.62510   0.86370   Biso      1.000     C          0.151027  
         C20       1.0000    0.15370   0.54280   0.89210   Biso      1.000     C          -0.17060799999999998          
         C21       1.0000    0.15640   0.54010   0.95390   Biso      1.000     C          0.098101  
         C22       1.0000    0.22630   0.24790   0.10490   Biso      1.000     C          -0.171006           
         C23       1.0000    0.22970   0.14140   0.11140   Biso      1.000     C          0.08605700000000001           
         C24       1.0000    0.20320   0.07190   0.06340   Biso      1.000     C          -0.14802  
         C25       1.0000    0.20260   0.96870   0.07160   Biso      1.000     C          -0.12000699999999999          
         C26       1.0000    0.23100   0.92970   0.12820   Biso      1.000     C          -0.015946000000000002         
         C27       1.0000    0.26180   0.99510   0.17400   Biso      1.000     C          -0.167128           
         C28       1.0000    0.26080   0.10270   0.16710   Biso      1.000     C          0.080465  
         C29       1.0000    0.57790   0.36820   0.63410   Biso      1.000     C          0.605112  
         C30       1.0000    0.28970   0.17200   0.21450   Biso      1.000     C          -0.147223           
         C31       1.0000    0.80570   0.44860   0.82840   Biso      1.000     C          0.119887  
         C32       1.0000    0.77830   0.36030   0.92020   Biso      1.000     C          0.24807600000000002           
         C33       1.0000    0.14440   0.39580   0.60800   Biso      1.000     C          -0.160504           
         C34       1.0000    0.25280   0.38900   0.61280   Biso      1.000     C          0.074645  
         C35       1.0000    0.31740   0.38830   0.56260   Biso      1.000     C          -0.14276  
         C36       1.0000    0.42050   0.38030   0.56870   Biso      1.000     C          -0.09817999999999999          
         C37       1.0000    0.46420   0.37500   0.62710   Biso      1.000     C          -0.018915           
         C38       1.0000    0.40300   0.37570   0.67680   Biso      1.000     C          -0.154445           
         C39       1.0000    0.29620   0.38310   0.67160   Biso      1.000     C          0.076013  
         C40       1.0000    0.22930   0.38130   0.72270   Biso      1.000     C          -0.141319           
         C41       1.0000    0.12710   0.38760   0.71610   Biso      1.000     C          -0.11101199999999999          
         C42       1.0000    0.08400   0.39390   0.65850   Biso      1.000     C          -0.014687           
         C43       1.0000    0.78630   0.35780   0.17380   Biso      1.000     C          0.022872  
         C44       1.0000    0.78490   0.35330   0.11030   Biso      1.000     C          0.022043  
         C45       1.0000    0.87850   0.35960   0.01220   Biso      1.000     C          0.456005  
         C46       1.0000    0.87830   0.35460   0.07880   Biso      1.000     C          -0.071389           
         C47       1.0000    0.97010   0.35420   0.10830   Biso      1.000     C          -0.061507000000000006         
         C48       1.0000    0.97150   0.35680   0.17150   Biso      1.000     C          -0.08037899999999999          
         C49       1.0000    0.88220   0.35830   0.20310   Biso      1.000     C          -0.035917000000000004         
         C50       1.0000    0.88720   0.36700   0.26930   Biso      1.000     C          0.323821  
         C51       1.0000    0.79130   0.36800   0.29940   Biso      1.000     C          -0.098208           
         C52       1.0000    0.69500   0.36570   0.27120   Biso      1.000     C          0.315433  
         C53       1.0000    0.69400   0.35910   0.20500   Biso      1.000     C          -0.037525           
         C54       1.0000    0.60160   0.35910   0.17580   Biso      1.000     C          -0.080666           
         C55       1.0000    0.59920   0.35500   0.11220   Biso      1.000     C          -0.066321           
         C56       1.0000    0.68860   0.35320   0.08110   Biso      1.000     C          -0.06581000000000001          
         C57       1.0000    0.68610   0.34860   0.01440   Biso      1.000     C          0.442481  
         C58       1.0000    0.73410   0.28160   0.82740   Biso      1.000     C          0.11099   
         C59       1.0000    0.73690   0.27520   0.88950   Biso      1.000     C          -0.20241099999999998          
         C60       1.0000    0.81210   0.44940   0.89070   Biso      1.000     C          -0.203658           
         C61       1.0000    0.28310   0.27540   0.20780   Biso      1.000     C          -0.11724100000000001          
         C62       1.0000    0.71690   0.72460   0.70780   Biso      1.000     C          -0.11724100000000001          
         C63       1.0000    0.85560   0.60420   0.10800   Biso      1.000     C          -0.160504           
         C64       1.0000    0.20870   0.63200   0.79940   Biso      1.000     C          -0.098207           
         C65       1.0000    0.30500   0.63430   0.77120   Biso      1.000     C          0.315433  
         C66       1.0000    0.30600   0.64090   0.70500   Biso      1.000     C          -0.037525           
         C67       1.0000    0.39840   0.64090   0.67580   Biso      1.000     C          -0.080666           
         C68       1.0000    0.40080   0.64500   0.61220   Biso      1.000     C          -0.066321           
         C69       1.0000    0.31140   0.64680   0.58110   Biso      1.000     C          -0.06581000000000001          
         C70       1.0000    0.19430   0.55140   0.32840   Biso      1.000     C          0.11988800000000001           
         C71       1.0000    0.25040   0.31260   0.15200   Biso      1.000     C          -0.023096000000000002         
         C72       1.0000    0.23700   0.42490   0.14510   Biso      1.000     C          0.588383  
         C73       1.0000    0.03050   0.60580   0.15030   Biso      1.000     C          0.591292  
         C74       1.0000    0.22800   0.81590   0.13610   Biso      1.000     C          0.599893  
         C75       1.0000    0.26590   0.71840   0.32740   Biso      1.000     C          0.11099   
         C76       1.0000    0.26310   0.72480   0.38950   Biso      1.000     C          -0.202413           
         C77       1.0000    0.22170   0.63970   0.42020   Biso      1.000     C          0.24807800000000002           
         C78       1.0000    0.18790   0.55060   0.39070   Biso      1.000     C          -0.20365899999999998          
         C79       1.0000    0.11280   0.63300   0.76930   Biso      1.000     C          0.323822  
         C80       1.0000    0.11780   0.64170   0.70310   Biso      1.000     C          -0.035924           
         C81       1.0000    0.31390   0.65140   0.51440   Biso      1.000     C          0.442481  
         C82       1.0000    0.02990   0.64580   0.60830   Biso      1.000     C          -0.061515           
         C83       1.0000    0.74720   0.61100   0.11280   Biso      1.000     C          0.074645  
         C84       1.0000    0.68260   0.61170   0.06260   Biso      1.000     C          -0.14276  
         C85       1.0000    0.57950   0.61970   0.06870   Biso      1.000     C          -0.09817999999999999          
         C86       1.0000    0.53580   0.62500   0.12710   Biso      1.000     C          -0.018915           
         C87       1.0000    0.59700   0.62430   0.17680   Biso      1.000     C          -0.154446           
         C88       1.0000    0.70380   0.61690   0.17160   Biso      1.000     C          0.076013  
         C89       1.0000    0.77070   0.61870   0.22270   Biso      1.000     C          -0.141319           
         C90       1.0000    0.87290   0.61240   0.21610   Biso      1.000     C          -0.11101199999999999          
         C91       1.0000    0.02850   0.64320   0.67150   Biso      1.000     C          -0.080372           
         C92       1.0000    0.42210   0.63180   0.13410   Biso      1.000     C          0.605113  
         C93       1.0000    0.84360   0.45990   0.45390   Biso      1.000     C          0.098101  
         C94       1.0000    0.12170   0.64540   0.57880   Biso      1.000     C          -0.071381           
         C95       1.0000    0.12150   0.64040   0.51220   Biso      1.000     C          0.456004  
         C96       1.0000    0.21510   0.64670   0.61030   Biso      1.000     C          0.022042  
         C97       1.0000    0.21370   0.64220   0.67380   Biso      1.000     C          0.022874000000000002          
         C98       1.0000    0.91600   0.60610   0.15850   Biso      1.000     C          -0.014687           
         H1        1.0000    0.46440   0.64660   0.59150   Biso      1.000     H          0.13356600000000002           
         H2        1.0000    0.16980   0.49170   0.30700   Biso      1.000     H          0.10818699999999999           
         H3        1.0000    0.16150   0.49130   0.41190   Biso      1.000     H          0.151529  
         H4        1.0000    0.28870   0.78530   0.41000   Biso      1.000     H          0.151621  
         H5        1.0000    0.29580   0.74560   0.98180   Biso      1.000     H          0.10719100000000001           
         H6        1.0000    0.29640   0.75840   0.87720   Biso      1.000     H          0.138666  
         H7        1.0000    0.11600   0.49050   0.86970   Biso      1.000     H          0.137845  
         H8        1.0000    0.12020   0.48420   0.97410   Biso      1.000     H          0.105643  
         H9        1.0000    0.20700   0.27500   0.06750   Biso      1.000     H          0.128749  
         H10       1.0000    0.29170   0.77690   0.30520   Biso      1.000     H          0.107823  
         H11       1.0000    0.18340   0.92310   0.03970   Biso      1.000     H          0.118718  
         H12       1.0000    0.28420   0.96820   0.21070   Biso      1.000     H          0.123794  
         H13       1.0000    0.31400   0.14660   0.25120   Biso      1.000     H          0.118852  
         H14       1.0000    0.30010   0.32110   0.24000   Biso      1.000     H          0.124422  
         H15       1.0000    0.71110   0.60660   0.02370   Biso      1.000     H          0.115972  
         H16       1.0000    0.53710   0.62160   0.03430   Biso      1.000     H          0.12540199999999999           
         H17       1.0000    0.56720   0.62890   0.21540   Biso      1.000     H          0.132194  
         H18       1.0000    0.74280   0.62430   0.26170   Biso      1.000     H          0.12209500000000001           
         H19       1.0000    0.91580   0.61220   0.25040   Biso      1.000     H          0.120861  
         H20       1.0000    0.96780   0.64780   0.58640   Biso      1.000     H          0.12286400000000001           
         H21       1.0000    0.96490   0.64260   0.69220   Biso      1.000     H          0.123518  
         H22       1.0000    0.46020   0.63820   0.69800   Biso      1.000     H          0.126606  
         H23       1.0000    0.18580   0.09780   0.02530   Biso      1.000     H          0.11786600000000001           
         H24       1.0000    0.88610   0.59830   0.06970   Biso      1.000     H          0.12553399999999998           
         H25       1.0000    0.69990   0.67890   0.74000   Biso      1.000     H          0.124422  
         H26       1.0000    0.70360   0.24160   0.37720   Biso      1.000     H          0.138665  
         H27       1.0000    0.83020   0.50830   0.80700   Biso      1.000     H          0.10818699999999999           
         H28       1.0000    0.83850   0.50870   0.91190   Biso      1.000     H          0.151529  
         H29       1.0000    0.71130   0.21470   0.91000   Biso      1.000     H          0.151621  
         H30       1.0000    0.70830   0.22310   0.80520   Biso      1.000     H          0.107823  
         H31       1.0000    0.53560   0.35340   0.09150   Biso      1.000     H          0.13356500000000002           
         H32       1.0000    0.53980   0.36180   0.19800   Biso      1.000     H          0.126606  
         H33       1.0000    0.03510   0.35740   0.19220   Biso      1.000     H          0.123518  
         H34       1.0000    0.70420   0.25440   0.48180   Biso      1.000     H          0.10719000000000001           
         H35       1.0000    0.08420   0.38780   0.75040   Biso      1.000     H          0.120861  
         H36       1.0000    0.25720   0.37570   0.76170   Biso      1.000     H          0.12209500000000001           
         H37       1.0000    0.03220   0.35220   0.08640   Biso      1.000     H          0.12286300000000001           
         H38       1.0000    0.46290   0.37840   0.53430   Biso      1.000     H          0.12540199999999999           
         H39       1.0000    0.88400   0.50950   0.36970   Biso      1.000     H          0.137845  
         H40       1.0000    0.43280   0.37110   0.71540   Biso      1.000     H          0.132194  
         H41       1.0000    0.79300   0.72500   0.56750   Biso      1.000     H          0.128749  
         H42       1.0000    0.81420   0.90220   0.52530   Biso      1.000     H          0.11786500000000001           
         H43       1.0000    0.87980   0.51580   0.47410   Biso      1.000     H          0.105643  
         H44       1.0000    0.71580   0.03180   0.71070   Biso      1.000     H          0.123794  
         H45       1.0000    0.68600   0.85340   0.75120   Biso      1.000     H          0.118852  
         H46       1.0000    0.11390   0.40170   0.56970   Biso      1.000     H          0.12553399999999998           
         H47       1.0000    0.28890   0.39340   0.52370   Biso      1.000     H          0.115972  
         H48       1.0000    0.81660   0.07690   0.53970   Biso      1.000     H          0.118719  
         N1        1.0000    0.76640   0.36700   0.79770   Biso      1.000     N          -0.195    
         N2        1.0000    0.78090   0.35850   0.98570   Biso      1.000     N          -0.24425700000000003          
         N3        1.0000    0.79180   0.38660   0.48640   Biso      1.000     N          -0.199044           
         N4        1.0000    0.20820   0.61340   0.98640   Biso      1.000     N          -0.199044           
         N5        1.0000    0.21910   0.64150   0.48570   Biso      1.000     N          -0.24425700000000003          
         N6        1.0000    0.23360   0.63300   0.29770   Biso      1.000     N          -0.195001           
         O1        1.0000    0.04460   0.63650   0.48210   Biso      1.000     O          -0.43500900000000003          
         O2        1.0000    0.77400   0.54040   0.59350   Biso      1.000     O          -0.541371           
         O3        1.0000    0.91570   0.37990   0.69720   Biso      1.000     O          -0.55629  
         O4        1.0000    0.93670   0.40770   0.59890   Biso      1.000     O          -0.536107           
         O5        1.0000    0.75720   0.21680   0.68800   Biso      1.000     O          -0.553658           
         O6        1.0000    0.61090   0.36150   0.68570   Biso      1.000     O          -0.541792           
         O7        1.0000    0.62970   0.36930   0.58710   Biso      1.000     O          -0.558243           
         O8        1.0000    0.60570   0.34300   0.98620   Biso      1.000     O          -0.43586099999999994          
         O9        1.0000    0.61730   0.36720   0.30120   Biso      1.000     O          -0.389276           
         O10       1.0000    0.76250   0.52310   0.69290   Biso      1.000     O          -0.5616939999999999           
         O11       1.0000    0.78860   0.23790   0.59030   Biso      1.000     O          -0.555192           
         O12       1.0000    0.95540   0.36350   0.98210   Biso      1.000     O          -0.43501000000000006          
         O13       1.0000    0.96720   0.37050   0.29740   Biso      1.000     O          -0.387179           
         O14       1.0000    0.03280   0.62950   0.79740   Biso      1.000     O          -0.38718  
         O15       1.0000    0.38270   0.63280   0.80120   Biso      1.000     O          -0.389277           
         O16       1.0000    0.39430   0.65700   0.48620   Biso      1.000     O          -0.43586099999999994          
         O17       1.0000    0.37030   0.63070   0.08710   Biso      1.000     O          -0.558243           
         O18       1.0000    0.38910   0.63850   0.18570   Biso      1.000     O          -0.541791           
         O19       1.0000    0.21140   0.76210   0.09030   Biso      1.000     O          -0.555192           
         O20       1.0000    0.24280   0.78320   0.18800   Biso      1.000     O          -0.553657           
         O21       1.0000    0.06330   0.59230   0.09890   Biso      1.000     O          -0.536107           
         O22       1.0000    0.08430   0.62010   0.19720   Biso      1.000     O          -0.55629  
         O23       1.0000    0.22600   0.45960   0.09350   Biso      1.000     O          -0.541371           
         O24       1.0000    0.23750   0.47690   0.19290   Biso      1.000     O          -0.5616939999999999           
         Zn1       1.0000    0.76169   0.36931   0.70672   Biso      1.000     Zn          0.8445739999999999  
         Zn2       1.0000    0.21410   0.60870   0.07700   Biso      1.000     Zn          0.8411370000000001  
         Zn3       1.0000    0.78590   0.39130   0.57700   Biso      1.000     Zn          0.8411379999999999  
         Zn4       1.0000    0.23831   0.63069   0.20672   Biso      1.000     Zn          0.8445739999999999 