
##########################################################################
#               Crystallographic Information Format file
#               Produced by PyCifRW module
#
#  This is a CIF file.  CIF has been adopted by the International
#  Union of Crystallography as the standard for data archiving and
#  transmission.
#
#  For information on this file format, follow the CIF links at
#  http://www.iucr.org
##########################################################################

data_image0

_cell_length_a                          5.5144
_cell_length_b                          8.0021
_cell_length_c                          9.2467
_cell_angle_alpha                       78.487
_cell_angle_beta                        72.869
_cell_angle_gamma                       87.2
_symmetry_space_group_name_H-M          'P 1'
_symmetry_int_tables_number             1
loop_
  _symmetry_equiv_pos_as_xyz
         'x, y, z' 
loop_
  _atom_site_label
  _atom_site_occupancy
  _atom_site_fract_x
  _atom_site_fract_y
  _atom_site_fract_z
  _atom_site_thermal_displace_type
  _atom_site_B_iso_or_equiv
  _atom_site_type_symbol
  _atom_site_charge
         C1        1.0000    0.29000   0.74080   0.76270   Biso      1.000     C          0.177815  
         C2        1.0000    0.00890   0.56770   0.77590   Biso      1.000     C          0.186049  
         C3        1.0000    0.99110   0.43230   0.22410   Biso      1.000     C          0.186047  
         C4        1.0000    0.71000   0.25920   0.23730   Biso      1.000     C          0.177817  
         Cd1       1.0000    0.00000   0.00000   0.00000   Biso      1.000     Cd          1.057977  
         Cd2       1.0000    0.50000   0.50000   0.50000   Biso      1.000     Cd          1.049917  
         H1        1.0000    0.44410   0.79920   0.73220   Biso      1.000     H          0.115202  
         H2        1.0000    0.92120   0.48030   0.75940   Biso      1.000     H          0.108927  
         H3        1.0000    0.76080   0.65710   0.93740   Biso      1.000     H          0.305359  
         H4        1.0000    0.07880   0.51970   0.24060   Biso      1.000     H          0.108927  
         H5        1.0000    0.55590   0.20080   0.26780   Biso      1.000     H          0.115203  
         H6        1.0000    0.23920   0.34290   0.06260   Biso      1.000     H          0.305358  
         N1        1.0000    0.91350   0.66420   0.87680   Biso      1.000     N          -0.098503           
         N2        1.0000    0.09100   0.77660   0.87150   Biso      1.000     N          -0.144979           
         N3        1.0000    0.75210   0.38870   0.29970   Biso      1.000     N          -0.323567           
         N4        1.0000    0.90900   0.22340   0.12850   Biso      1.000     N          -0.145003           
         N5        1.0000    0.08650   0.33580   0.12320   Biso      1.000     N          -0.098478           
         N6        1.0000    0.24790   0.61130   0.70030   Biso      1.000     N          -0.323567           
         O1        1.0000    0.30520   0.69180   0.34970   Biso      1.000     O          -0.7271489999999999           
         O2        1.0000    0.53800   0.31820   0.91960   Biso      1.000     O          -0.718353           
         O3        1.0000    0.66530   0.86340   0.19100   Biso      1.000     O          -0.724228           
         O4        1.0000    0.75140   0.06860   0.83610   Biso      1.000     O          -0.692022           
         O5        1.0000    0.46200   0.68180   0.08040   Biso      1.000     O          -0.718354           
         O6        1.0000    0.69480   0.30820   0.65030   Biso      1.000     O          -0.7271479999999999           
         O7        1.0000    0.24860   0.93140   0.16390   Biso      1.000     O          -0.692022           
         O8        1.0000    0.33470   0.13660   0.80900   Biso      1.000     O          -0.724228           
         S1        1.0000    0.57944   0.20762   0.80731   Biso      1.000     S          1.4815    
         S2        1.0000    0.42056   0.79238   0.19269   Biso      1.000     S          1.481502 