
##########################################################################
#               Crystallographic Information Format file
#               Produced by PyCifRW module
#
#  This is a CIF file.  CIF has been adopted by the International
#  Union of Crystallography as the standard for data archiving and
#  transmission.
#
#  For information on this file format, follow the CIF links at
#  http://www.iucr.org
##########################################################################

data_image0

_cell_length_a                          14.3683
_cell_length_b                          14.3683
_cell_length_c                          15.393
_cell_angle_alpha                       90
_cell_angle_beta                        90
_cell_angle_gamma                       120
_symmetry_space_group_name_H-M          'P 1'
_symmetry_int_tables_number             1
loop_
  _symmetry_equiv_pos_as_xyz
         'x, y, z' 
loop_
  _atom_site_label
  _atom_site_occupancy
  _atom_site_fract_x
  _atom_site_fract_y
  _atom_site_fract_z
  _atom_site_thermal_displace_type
  _atom_site_B_iso_or_equiv
  _atom_site_type_symbol
  _atom_site_charge
         C1        1.0000    0.13070   0.64670   0.13860   Biso      1.000     C          0.671033  
         C2        1.0000    0.48400   0.35330   0.63860   Biso      1.000     C          0.671032  
         C3        1.0000    0.14910   0.40900   0.69430   Biso      1.000     C          -0.157617           
         C4        1.0000    0.13070   0.48400   0.63860   Biso      1.000     C          0.671022  
         C5        1.0000    0.25990   0.85090   0.69430   Biso      1.000     C          -0.157609           
         C6        1.0000    0.35330   0.86930   0.63860   Biso      1.000     C          0.671041  
         C7        1.0000    0.59100   0.74010   0.69430   Biso      1.000     C          -0.157613           
         C8        1.0000    0.51600   0.64670   0.63860   Biso      1.000     C          0.671032  
         C9        1.0000    0.25990   0.40900   0.80570   Biso      1.000     C          -0.157617           
         C10       1.0000    0.40900   0.25990   0.69430   Biso      1.000     C          -0.157613           
         C11       1.0000    0.35330   0.48400   0.86140   Biso      1.000     C          0.671022  
         C12       1.0000    0.51600   0.86930   0.86140   Biso      1.000     C          0.67104   
         C13       1.0000    0.14910   0.74010   0.80570   Biso      1.000     C          -0.157613           
         C14       1.0000    0.13070   0.64670   0.86140   Biso      1.000     C          0.671033  
         C15       1.0000    0.74010   0.59100   0.80570   Biso      1.000     C          -0.157617           
         C16       1.0000    0.64670   0.51600   0.86140   Biso      1.000     C          0.671022  
         C17       1.0000    0.40900   0.14910   0.80570   Biso      1.000     C          -0.157609           
         C18       1.0000    0.48400   0.13070   0.86140   Biso      1.000     C          0.67104   
         C19       1.0000    0.85090   0.25990   0.80570   Biso      1.000     C          -0.157613           
         C20       1.0000    0.59100   0.85090   0.80570   Biso      1.000     C          -0.157609           
         C21       1.0000    0.64670   0.13070   0.63860   Biso      1.000     C          0.671041  
         C22       1.0000    0.74010   0.14910   0.69430   Biso      1.000     C          -0.157609           
         C23       1.0000    0.86930   0.51600   0.63860   Biso      1.000     C          0.671022  
         C24       1.0000    0.85090   0.59100   0.30570   Biso      1.000     C          -0.157617           
         C25       1.0000    0.86930   0.51600   0.36140   Biso      1.000     C          0.6710229999999999  
         C26       1.0000    0.74010   0.14910   0.30570   Biso      1.000     C          -0.157609           
         C27       1.0000    0.64670   0.13070   0.36140   Biso      1.000     C          0.671041  
         C28       1.0000    0.40900   0.25990   0.30570   Biso      1.000     C          -0.157613           
         C29       1.0000    0.48400   0.35330   0.36140   Biso      1.000     C          0.671032  
         C30       1.0000    0.74010   0.59100   0.19430   Biso      1.000     C          -0.157617           
         C31       1.0000    0.64670   0.51600   0.13860   Biso      1.000     C          0.671022  
         C32       1.0000    0.40900   0.14910   0.19430   Biso      1.000     C          -0.157609           
         C33       1.0000    0.48400   0.13070   0.13860   Biso      1.000     C          0.67104   
         C34       1.0000    0.85090   0.25990   0.19430   Biso      1.000     C          -0.157613           
         C35       1.0000    0.86930   0.35330   0.13860   Biso      1.000     C          0.671034  
         C36       1.0000    0.25990   0.40900   0.19430   Biso      1.000     C          -0.157617           
         C37       1.0000    0.35330   0.48400   0.13860   Biso      1.000     C          0.671022  
         C38       1.0000    0.59100   0.85090   0.19430   Biso      1.000     C          -0.157609           
         C39       1.0000    0.51600   0.86930   0.13860   Biso      1.000     C          0.67104   
         C40       1.0000    0.14910   0.74010   0.19430   Biso      1.000     C          -0.157613           
         C41       1.0000    0.35330   0.86930   0.36140   Biso      1.000     C          0.671042  
         C42       1.0000    0.85090   0.59100   0.69430   Biso      1.000     C          -0.157616           
         C43       1.0000    0.86930   0.35330   0.86140   Biso      1.000     C          0.671033  
         C44       1.0000    0.51600   0.64670   0.36140   Biso      1.000     C          0.671033  
         C45       1.0000    0.59100   0.74010   0.30570   Biso      1.000     C          -0.157613           
         C46       1.0000    0.14910   0.40900   0.30570   Biso      1.000     C          -0.157617           
         C47       1.0000    0.13070   0.48400   0.36140   Biso      1.000     C          0.6710229999999999  
         C48       1.0000    0.25990   0.85090   0.30570   Biso      1.000     C          -0.157609           
         Cu1       1.0000    0.50000   0.00000   0.50000   Biso      1.000     Cu          0.991663  
         Cu2       1.0000    0.00000   0.50000   0.00000   Biso      1.000     Cu          0.99166   
         Cu3       1.0000    0.50000   0.00000   0.00000   Biso      1.000     Cu          0.991664  
         Cu4       1.0000    0.50000   0.50000   0.00000   Biso      1.000     Cu          0.991662  
         Cu5       1.0000    0.50000   0.50000   0.50000   Biso      1.000     Cu          0.991658  
         Cu6       1.0000    0.00000   0.50000   0.50000   Biso      1.000     Cu          0.991665  
         H1        1.0000    0.27830   0.36330   0.77220   Biso      1.000     H          0.107325  
         H2        1.0000    0.19840   0.36360   0.84190   Biso      1.000     H          0.12315799999999999           
         H3        1.0000    0.63670   0.72170   0.72780   Biso      1.000     H          0.10732   
         H4        1.0000    0.80160   0.63640   0.15810   Biso      1.000     H          0.12315799999999999           
         H5        1.0000    0.27830   0.91500   0.72780   Biso      1.000     H          0.10732   
         H6        1.0000    0.19840   0.83480   0.65810   Biso      1.000     H          0.123151  
         H7        1.0000    0.63640   0.83480   0.84190   Biso      1.000     H          0.123151  
         H8        1.0000    0.63640   0.80160   0.65810   Biso      1.000     H          0.12315599999999999           
         H9        1.0000    0.63670   0.91500   0.77220   Biso      1.000     H          0.10732   
         H10       1.0000    0.36360   0.16520   0.84190   Biso      1.000     H          0.123151  
         H11       1.0000    0.08500   0.72170   0.77220   Biso      1.000     H          0.10732   
         H12       1.0000    0.80160   0.63640   0.84190   Biso      1.000     H          0.12315699999999999           
         H13       1.0000    0.72170   0.63670   0.77220   Biso      1.000     H          0.107324  
         H14       1.0000    0.08500   0.36330   0.72780   Biso      1.000     H          0.107324  
         H15       1.0000    0.36330   0.08500   0.77220   Biso      1.000     H          0.10732   
         H16       1.0000    0.83480   0.19840   0.84190   Biso      1.000     H          0.12315599999999999           
         H17       1.0000    0.91500   0.27830   0.77220   Biso      1.000     H          0.10731900000000001           
         H18       1.0000    0.16520   0.80160   0.84190   Biso      1.000     H          0.12315699999999999           
         H19       1.0000    0.72170   0.63670   0.22780   Biso      1.000     H          0.107324  
         H20       1.0000    0.16520   0.36360   0.65810   Biso      1.000     H          0.12315899999999999           
         H21       1.0000    0.36360   0.19840   0.65810   Biso      1.000     H          0.12315599999999999           
         H22       1.0000    0.36330   0.27830   0.27220   Biso      1.000     H          0.10731900000000001           
         H23       1.0000    0.36360   0.19840   0.34190   Biso      1.000     H          0.12315699999999999           
         H24       1.0000    0.72170   0.08500   0.27220   Biso      1.000     H          0.10731900000000001           
         H25       1.0000    0.80160   0.16520   0.34190   Biso      1.000     H          0.123152  
         H26       1.0000    0.36360   0.16520   0.15810   Biso      1.000     H          0.123152  
         H27       1.0000    0.83480   0.63640   0.34190   Biso      1.000     H          0.12315799999999999           
         H28       1.0000    0.63670   0.72170   0.27220   Biso      1.000     H          0.10731900000000001           
         H29       1.0000    0.63640   0.80160   0.34190   Biso      1.000     H          0.12315699999999999           
         H30       1.0000    0.27830   0.91500   0.27220   Biso      1.000     H          0.10732   
         H31       1.0000    0.19840   0.83480   0.34190   Biso      1.000     H          0.123152  
         H32       1.0000    0.08500   0.36330   0.27220   Biso      1.000     H          0.107324  
         H33       1.0000    0.16520   0.36360   0.34190   Biso      1.000     H          0.12315999999999999           
         H34       1.0000    0.36330   0.08500   0.22780   Biso      1.000     H          0.10731900000000001           
         H35       1.0000    0.83480   0.19840   0.15810   Biso      1.000     H          0.12315699999999999           
         H36       1.0000    0.91500   0.27830   0.22780   Biso      1.000     H          0.10731800000000001           
         H37       1.0000    0.19840   0.36360   0.15810   Biso      1.000     H          0.12315899999999999           
         H38       1.0000    0.27830   0.36330   0.22780   Biso      1.000     H          0.107324  
         H39       1.0000    0.63640   0.83480   0.15810   Biso      1.000     H          0.123152  
         H40       1.0000    0.63670   0.91500   0.22780   Biso      1.000     H          0.10732   
         H41       1.0000    0.16520   0.80160   0.15810   Biso      1.000     H          0.12315799999999999           
         H42       1.0000    0.08500   0.72170   0.22780   Biso      1.000     H          0.10731900000000001           
         H43       1.0000    0.83480   0.63640   0.65810   Biso      1.000     H          0.12315699999999999           
         H44       1.0000    0.91500   0.63670   0.72780   Biso      1.000     H          0.107323  
         H45       1.0000    0.80160   0.16520   0.65810   Biso      1.000     H          0.123151  
         H46       1.0000    0.72170   0.08500   0.72780   Biso      1.000     H          0.10732   
         H47       1.0000    0.36330   0.27830   0.72780   Biso      1.000     H          0.10731900000000001           
         H48       1.0000    0.91500   0.63670   0.27220   Biso      1.000     H          0.107323  
         Ho1       1.0000    0.66667   0.33334   0.75000   Biso      1.000     Ho          1.9590310000000002  
         Ho2       1.0000    0.66667   0.33334   0.25000   Biso      1.000     Ho          1.9590299999999998  
         Ho3       1.0000    0.33333   0.66666   0.25000   Biso      1.000     Ho          1.9590299999999998  
         Ho4       1.0000    0.33333   0.66666   0.75000   Biso      1.000     Ho          1.9590319999999999  
         O1        1.0000    0.94790   0.38800   0.08800   Biso      1.000     O          -0.571045           
         O2        1.0000    0.58230   0.19480   0.14510   Biso      1.000     O          -0.633352           
         O3        1.0000    0.44010   0.05210   0.08800   Biso      1.000     O          -0.571048           
         O4        1.0000    0.61250   0.41770   0.14510   Biso      1.000     O          -0.633309           
         O5        1.0000    0.61200   0.55990   0.08800   Biso      1.000     O          -0.57104  
         O6        1.0000    0.58230   0.38750   0.35490   Biso      1.000     O          -0.6333270000000001           
         O7        1.0000    0.44010   0.38800   0.41200   Biso      1.000     O          -0.571045           
         O8        1.0000    0.61250   0.19480   0.35490   Biso      1.000     O          -0.633352           
         O9        1.0000    0.61200   0.05210   0.41200   Biso      1.000     O          -0.571048           
         O10       1.0000    0.80520   0.41770   0.35490   Biso      1.000     O          -0.633309           
         O11       1.0000    0.94790   0.55990   0.41200   Biso      1.000     O          -0.571041           
         O12       1.0000    0.41770   0.61250   0.35490   Biso      1.000     O          -0.633328           
         O13       1.0000    0.55990   0.61200   0.41200   Biso      1.000     O          -0.571044           
         O14       1.0000    0.38800   0.94790   0.41200   Biso      1.000     O          -0.571047           
         O15       1.0000    0.80520   0.38750   0.14510   Biso      1.000     O          -0.633328           
         O16       1.0000    0.19480   0.58230   0.35490   Biso      1.000     O          -0.633309           
         O17       1.0000    0.05210   0.44010   0.41200   Biso      1.000     O          -0.5710390000000001           
         O18       1.0000    0.76515   0.23485   0.75000   Biso      1.000     O          -0.227895           
         O19       1.0000    0.46970   0.23485   0.75000   Biso      1.000     O          -0.227895           
         O20       1.0000    0.76515   0.53030   0.75000   Biso      1.000     O          -0.22786199999999998          
         O21       1.0000    0.23485   0.76515   0.75000   Biso      1.000     O          -0.227895           
         O22       1.0000    0.53030   0.76515   0.75000   Biso      1.000     O          -0.227895           
         O23       1.0000    0.23485   0.46970   0.75000   Biso      1.000     O          -0.227861           
         O24       1.0000    0.23485   0.76515   0.25000   Biso      1.000     O          -0.227894           
         O25       1.0000    0.53030   0.76515   0.25000   Biso      1.000     O          -0.227895           
         O26       1.0000    0.23485   0.46970   0.25000   Biso      1.000     O          -0.227861           
         O27       1.0000    0.76515   0.23485   0.25000   Biso      1.000     O          -0.227895           
         O28       1.0000    0.38750   0.80520   0.35490   Biso      1.000     O          -0.633352           
         O29       1.0000    0.38800   0.44010   0.08800   Biso      1.000     O          -0.5710390000000001           
         O30       1.0000    0.38750   0.58230   0.14510   Biso      1.000     O          -0.633308           
         O31       1.0000    0.55990   0.94790   0.08800   Biso      1.000     O          -0.571047           
         O32       1.0000    0.80520   0.38750   0.85490   Biso      1.000     O          -0.633329           
         O33       1.0000    0.94790   0.38800   0.91200   Biso      1.000     O          -0.571046           
         O34       1.0000    0.58230   0.19480   0.85490   Biso      1.000     O          -0.6333529999999999           
         O35       1.0000    0.44010   0.05210   0.91200   Biso      1.000     O          -0.571049           
         O36       1.0000    0.61250   0.41770   0.85490   Biso      1.000     O          -0.633309           
         O37       1.0000    0.61200   0.55990   0.91200   Biso      1.000     O          -0.571041           
         O38       1.0000    0.19480   0.61250   0.85490   Biso      1.000     O          -0.633329           
         O39       1.0000    0.05210   0.61200   0.91200   Biso      1.000     O          -0.571045           
         O40       1.0000    0.41770   0.80520   0.85490   Biso      1.000     O          -0.6333529999999999           
         O41       1.0000    0.55990   0.94790   0.91200   Biso      1.000     O          -0.571048           
         O42       1.0000    0.38750   0.58230   0.85490   Biso      1.000     O          -0.633309           
         O43       1.0000    0.38800   0.44010   0.91200   Biso      1.000     O          -0.57104  
         O44       1.0000    0.41770   0.61250   0.64510   Biso      1.000     O          -0.633329           
         O45       1.0000    0.55990   0.61200   0.58800   Biso      1.000     O          -0.571045           
         O46       1.0000    0.38750   0.80520   0.64510   Biso      1.000     O          -0.6333529999999999           
         O47       1.0000    0.38800   0.94790   0.58800   Biso      1.000     O          -0.571049           
         O48       1.0000    0.19480   0.58230   0.64510   Biso      1.000     O          -0.63331  
         O49       1.0000    0.05210   0.44010   0.58800   Biso      1.000     O          -0.57104  
         O50       1.0000    0.58230   0.38750   0.64510   Biso      1.000     O          -0.633328           
         O51       1.0000    0.44010   0.38800   0.58800   Biso      1.000     O          -0.571046           
         O52       1.0000    0.61250   0.19480   0.64510   Biso      1.000     O          -0.6333529999999999           
         O53       1.0000    0.61200   0.05210   0.58800   Biso      1.000     O          -0.571049           
         O54       1.0000    0.80520   0.41770   0.64510   Biso      1.000     O          -0.63331  
         O55       1.0000    0.94790   0.55990   0.58800   Biso      1.000     O          -0.571041           
         O56       1.0000    0.19480   0.61250   0.14510   Biso      1.000     O          -0.6333270000000001           
         O57       1.0000    0.05210   0.61200   0.08800   Biso      1.000     O          -0.5710430000000001           
         O58       1.0000    0.41770   0.80520   0.14510   Biso      1.000     O          -0.6333529999999999           
         O59       1.0000    0.46970   0.23485   0.25000   Biso      1.000     O          -0.227895           
         O60       1.0000    0.76515   0.53030   0.25000   Biso      1.000     O          -0.22786199999999998 