
##########################################################################
#               Crystallographic Information Format file
#               Produced by PyCifRW module
#
#  This is a CIF file.  CIF has been adopted by the International
#  Union of Crystallography as the standard for data archiving and
#  transmission.
#
#  For information on this file format, follow the CIF links at
#  http://www.iucr.org
##########################################################################

data_image0

_cell_length_a                          10.154
_cell_length_b                          10.154
_cell_length_c                          15.5121
_cell_angle_alpha                       72.0821
_cell_angle_beta                        72.0821
_cell_angle_gamma                       86.5078
_symmetry_space_group_name_H-M          'P 1'
_symmetry_int_tables_number             1
loop_
  _symmetry_equiv_pos_as_xyz
         'x, y, z' 
loop_
  _atom_site_label
  _atom_site_occupancy
  _atom_site_fract_x
  _atom_site_fract_y
  _atom_site_fract_z
  _atom_site_thermal_displace_type
  _atom_site_B_iso_or_equiv
  _atom_site_type_symbol
  _atom_site_charge
         C1        1.0000    0.27950   0.03170   0.37150   Biso      1.000     C          0.5844020000000001  
         C2        1.0000    0.90190   0.09450   0.01590   Biso      1.000     C          -0.156047           
         C3        1.0000    0.74710   0.92250   0.15630   Biso      1.000     C          0.607567  
         C4        1.0000    0.96830   0.72050   0.12850   Biso      1.000     C          0.584392  
         C5        1.0000    0.52850   0.27630   0.35880   Biso      1.000     C          -0.060464           
         C6        1.0000    0.54700   0.29540   0.19640   Biso      1.000     C          -0.054508           
         C7        1.0000    0.03820   0.12040   0.42330   Biso      1.000     C          -0.015066           
         C8        1.0000    0.13500   0.01920   0.43890   Biso      1.000     C          -0.0029980000000000002        
         C9        1.0000    0.90550   0.09810   0.48410   Biso      1.000     C          -0.15603499999999998          
         C10       1.0000    0.07750   0.25290   0.34370   Biso      1.000     C          0.607557  
         C11       1.0000    0.72370   0.47150   0.14120   Biso      1.000     C          -0.060462           
         C12       1.0000    0.70460   0.45300   0.30360   Biso      1.000     C          -0.05450599999999999          
         C13       1.0000    0.12040   0.03820   0.92330   Biso      1.000     C          -0.015061000000000001         
         C14       1.0000    0.01920   0.13500   0.93890   Biso      1.000     C          -0.002994           
         C15       1.0000    0.09810   0.90550   0.98410   Biso      1.000     C          -0.15604300000000002          
         C16       1.0000    0.25290   0.07750   0.84370   Biso      1.000     C          0.607567  
         C17       1.0000    0.03170   0.27950   0.87150   Biso      1.000     C          0.584386  
         C18       1.0000    0.47150   0.72370   0.64120   Biso      1.000     C          -0.060463           
         C19       1.0000    0.45300   0.70460   0.80360   Biso      1.000     C          -0.054504           
         C20       1.0000    0.96180   0.87960   0.57670   Biso      1.000     C          -0.015066999999999999         
         C21       1.0000    0.86500   0.98080   0.56110   Biso      1.000     C          -0.00299  
         C22       1.0000    0.09450   0.90190   0.51590   Biso      1.000     C          -0.15604200000000001          
         C23       1.0000    0.92250   0.74710   0.65630   Biso      1.000     C          0.607572  
         C24       1.0000    0.72050   0.96830   0.62850   Biso      1.000     C          0.584379  
         C25       1.0000    0.27630   0.52850   0.85880   Biso      1.000     C          -0.060458000000000005         
         C26       1.0000    0.29540   0.54700   0.69640   Biso      1.000     C          -0.05450700000000001          
         C27       1.0000    0.74910   0.25090   0.25000   Biso      1.000     C          -0.040687           
         C28       1.0000    0.50580   0.49420   0.25000   Biso      1.000     C          -0.043929           
         C29       1.0000    0.25090   0.74910   0.75000   Biso      1.000     C          -0.040687           
         C30       1.0000    0.49420   0.50580   0.75000   Biso      1.000     C          -0.043965           
         C31       1.0000    0.98080   0.86500   0.06110   Biso      1.000     C          -0.002984           
         C32       1.0000    0.87960   0.96180   0.07670   Biso      1.000     C          -0.015063           
         Cu1       1.0000    0.55399   0.00801   0.31352   Biso      1.000     Cu          0.742775  
         Cu2       1.0000    0.99199   0.44601   0.18648   Biso      1.000     Cu          0.742749  
         Cu3       1.0000    0.44601   0.99199   0.68648   Biso      1.000     Cu          0.742715  
         Cu4       1.0000    0.00801   0.55399   0.81352   Biso      1.000     Cu          0.742725  
         H1        1.0000    0.24900   0.59700   0.65400   Biso      1.000     H          0.113918  
         H2        1.0000    0.48400   0.40200   0.77300   Biso      1.000     H          0.125077  
         H3        1.0000    0.77600   0.20000   0.31100   Biso      1.000     H          0.11738399999999999           
         H4        1.0000    0.42900   0.25700   0.37400   Biso      1.000     H          0.129665  
         H5        1.0000    0.57200   0.23200   0.40600   Biso      1.000     H          0.11330899999999999           
         H6        1.0000    0.43800   0.27800   0.21700   Biso      1.000     H          0.128406  
         H7        1.0000    0.59700   0.24900   0.15400   Biso      1.000     H          0.1139    
         H8        1.0000    0.40200   0.48400   0.27300   Biso      1.000     H          0.12500899999999998           
         H9        1.0000    0.84600   0.16200   0.47400   Biso      1.000     H          0.12851500000000002           
         H10       1.0000    0.80000   0.22400   0.18900   Biso      1.000     H          0.11738499999999999           
         H11       1.0000    0.74300   0.57100   0.12600   Biso      1.000     H          0.129666  
         H12       1.0000    0.76800   0.42800   0.09400   Biso      1.000     H          0.11330899999999999           
         H13       1.0000    0.72200   0.56200   0.28300   Biso      1.000     H          0.12841   
         H14       1.0000    0.83800   0.15400   0.02600   Biso      1.000     H          0.128521  
         H15       1.0000    0.51600   0.59800   0.22700   Biso      1.000     H          0.12501500000000002           
         H16       1.0000    0.27800   0.43800   0.71700   Biso      1.000     H          0.128417  
         H17       1.0000    0.23200   0.57200   0.90600   Biso      1.000     H          0.113329  
         H18       1.0000    0.25700   0.42900   0.87400   Biso      1.000     H          0.129678  
         H19       1.0000    0.20000   0.77600   0.81100   Biso      1.000     H          0.11739000000000001           
         H20       1.0000    0.15400   0.83800   0.52600   Biso      1.000     H          0.128512  
         H21       1.0000    0.40300   0.75100   0.84600   Biso      1.000     H          0.11391199999999999           
         H22       1.0000    0.59800   0.51600   0.72700   Biso      1.000     H          0.125082  
         H23       1.0000    0.42800   0.76800   0.59400   Biso      1.000     H          0.113328  
         H24       1.0000    0.57100   0.74300   0.62600   Biso      1.000     H          0.129677  
         H25       1.0000    0.22400   0.80000   0.68900   Biso      1.000     H          0.11738699999999999           
         H26       1.0000    0.16200   0.84600   0.97400   Biso      1.000     H          0.12850699999999998           
         H27       1.0000    0.56200   0.72200   0.78300   Biso      1.000     H          0.128413  
         H28       1.0000    0.75100   0.40300   0.34600   Biso      1.000     H          0.113898  
         N1        1.0000    0.44300   0.57500   0.66870   Biso      1.000     N          -0.117751           
         N2        1.0000    0.42500   0.55700   0.83130   Biso      1.000     N          -0.117746           
         N3        1.0000    0.21930   0.59710   0.77860   Biso      1.000     N          -0.127661           
         N4        1.0000    0.40290   0.78070   0.72140   Biso      1.000     N          -0.127665           
         N5        1.0000    0.78070   0.40290   0.22140   Biso      1.000     N          -0.127667           
         N6        1.0000    0.55700   0.42500   0.33130   Biso      1.000     N          -0.117797           
         N7        1.0000    0.59710   0.21930   0.27860   Biso      1.000     N          -0.127647           
         N8        1.0000    0.57500   0.44300   0.16870   Biso      1.000     N          -0.117798           
         O1        1.0000    0.81100   0.68640   0.67310   Biso      1.000     O          -0.562929           
         O2        1.0000    0.01160   0.70380   0.69910   Biso      1.000     O          -0.5766319999999999           
         O3        1.0000    0.05380   0.29960   0.78690   Biso      1.000     O          -0.5185310000000001           
         O4        1.0000    0.01370   0.37650   0.91080   Biso      1.000     O          -0.5559609999999999           
         O5        1.0000    0.31360   0.18900   0.82690   Biso      1.000     O          -0.5629430000000001           
         O6        1.0000    0.29620   0.98840   0.80090   Biso      1.000     O          -0.576637           
         O7        1.0000    0.29960   0.05380   0.28690   Biso      1.000     O          -0.518584           
         O8        1.0000    0.18900   0.31360   0.32690   Biso      1.000     O          -0.562934           
         O9        1.0000    0.98840   0.29620   0.30090   Biso      1.000     O          -0.576642           
         O10       1.0000    0.94620   0.70040   0.21310   Biso      1.000     O          -0.518623           
         O11       1.0000    0.98630   0.62350   0.08920   Biso      1.000     O          -0.556027           
         O12       1.0000    0.68640   0.81100   0.17310   Biso      1.000     O          -0.562929           
         O13       1.0000    0.70380   0.01160   0.19910   Biso      1.000     O          -0.57663  
         O14       1.0000    0.62350   0.98630   0.58920   Biso      1.000     O          -0.555982           
         O15       1.0000    0.37650   0.01370   0.41080   Biso      1.000     O          -0.556003           
         O16       1.0000    0.70040   0.94620   0.71310   Biso      1.000     O          -0.5185569999999999 