
##########################################################################
#               Crystallographic Information Format file
#               Produced by PyCifRW module
#
#  This is a CIF file.  CIF has been adopted by the International
#  Union of Crystallography as the standard for data archiving and
#  transmission.
#
#  For information on this file format, follow the CIF links at
#  http://www.iucr.org
##########################################################################

data_image0

_cell_length_a                          14.6242
_cell_length_b                          14.6242
_cell_length_c                          15.187
_cell_angle_alpha                       90
_cell_angle_beta                        90
_cell_angle_gamma                       120
_symmetry_space_group_name_H-M          'P 1'
_symmetry_int_tables_number             1
loop_
  _symmetry_equiv_pos_as_xyz
         'x, y, z' 
loop_
  _atom_site_label
  _atom_site_occupancy
  _atom_site_fract_x
  _atom_site_fract_y
  _atom_site_fract_z
  _atom_site_thermal_displace_type
  _atom_site_B_iso_or_equiv
  _atom_site_type_symbol
  _atom_site_charge
         C1        1.0000    0.86940   0.35500   0.36090   Biso      1.000     C          0.67062   
         C2        1.0000    0.85060   0.26330   0.30380   Biso      1.000     C          -0.16012300000000002          
         C3        1.0000    0.14940   0.41270   0.80380   Biso      1.000     C          -0.160115           
         C4        1.0000    0.13060   0.48560   0.86090   Biso      1.000     C          0.670614  
         C5        1.0000    0.26330   0.85060   0.80380   Biso      1.000     C          -0.16012  
         C6        1.0000    0.35500   0.86940   0.86090   Biso      1.000     C          0.670619  
         C7        1.0000    0.58730   0.73670   0.80380   Biso      1.000     C          -0.160126           
         C8        1.0000    0.51440   0.64500   0.86090   Biso      1.000     C          0.670621  
         C9        1.0000    0.85060   0.58730   0.80380   Biso      1.000     C          -0.160114           
         C10       1.0000    0.86940   0.51440   0.86090   Biso      1.000     C          0.670612  
         C11       1.0000    0.73670   0.14940   0.80380   Biso      1.000     C          -0.16012  
         C12       1.0000    0.64500   0.13060   0.86090   Biso      1.000     C          0.670618  
         C13       1.0000    0.41270   0.26330   0.80380   Biso      1.000     C          -0.16012200000000001          
         C14       1.0000    0.48560   0.35500   0.86090   Biso      1.000     C          0.670618  
         C15       1.0000    0.73670   0.58730   0.69620   Biso      1.000     C          -0.160114           
         C16       1.0000    0.64500   0.51440   0.63910   Biso      1.000     C          0.670611  
         C17       1.0000    0.41270   0.14940   0.69620   Biso      1.000     C          -0.160119           
         C18       1.0000    0.48560   0.13060   0.63910   Biso      1.000     C          0.670616  
         C19       1.0000    0.85060   0.26330   0.69620   Biso      1.000     C          -0.160124           
         C20       1.0000    0.86940   0.35500   0.63910   Biso      1.000     C          0.67062   
         C21       1.0000    0.26330   0.41270   0.69620   Biso      1.000     C          -0.160115           
         C22       1.0000    0.35500   0.48560   0.63910   Biso      1.000     C          0.670612  
         C23       1.0000    0.58730   0.85060   0.69620   Biso      1.000     C          -0.16012300000000002          
         C24       1.0000    0.51440   0.86940   0.63910   Biso      1.000     C          0.670619  
         C25       1.0000    0.48560   0.13060   0.36090   Biso      1.000     C          0.670618  
         C26       1.0000    0.41270   0.14940   0.30380   Biso      1.000     C          -0.160121           
         C27       1.0000    0.64500   0.51440   0.36090   Biso      1.000     C          0.670611  
         C28       1.0000    0.73670   0.58730   0.30380   Biso      1.000     C          -0.160113           
         C29       1.0000    0.85060   0.58730   0.19620   Biso      1.000     C          -0.160114           
         C30       1.0000    0.86940   0.51440   0.13910   Biso      1.000     C          0.670613  
         C31       1.0000    0.73670   0.14940   0.19620   Biso      1.000     C          -0.160119           
         C32       1.0000    0.64500   0.13060   0.13910   Biso      1.000     C          0.670618  
         C33       1.0000    0.41270   0.26330   0.19620   Biso      1.000     C          -0.160124           
         C34       1.0000    0.14940   0.73670   0.69620   Biso      1.000     C          -0.16012300000000002          
         C35       1.0000    0.14940   0.41270   0.19620   Biso      1.000     C          -0.160117           
         C36       1.0000    0.13060   0.48560   0.13910   Biso      1.000     C          0.670614  
         C37       1.0000    0.26330   0.85060   0.19620   Biso      1.000     C          -0.160121           
         C38       1.0000    0.48560   0.35500   0.13910   Biso      1.000     C          0.67062   
         C39       1.0000    0.58730   0.73670   0.19620   Biso      1.000     C          -0.160124           
         C40       1.0000    0.51440   0.64500   0.13910   Biso      1.000     C          0.67062   
         C41       1.0000    0.26330   0.41270   0.30380   Biso      1.000     C          -0.160115           
         C42       1.0000    0.35500   0.48560   0.36090   Biso      1.000     C          0.670614  
         C43       1.0000    0.58730   0.85060   0.30380   Biso      1.000     C          -0.160121           
         C44       1.0000    0.51440   0.86940   0.36090   Biso      1.000     C          0.670618  
         C45       1.0000    0.14940   0.73670   0.30380   Biso      1.000     C          -0.160124           
         C46       1.0000    0.13060   0.64500   0.36090   Biso      1.000     C          0.670621  
         C47       1.0000    0.35500   0.86940   0.13910   Biso      1.000     C          0.670619  
         C48       1.0000    0.13060   0.64500   0.63910   Biso      1.000     C          0.670621  
         Cu1       1.0000    0.00000   0.50000   0.00000   Biso      1.000     Cu          0.9901700000000001  
         Cu2       1.0000    0.50000   0.00000   0.00000   Biso      1.000     Cu          0.9901620000000001  
         Cu3       1.0000    0.50000   0.50000   0.00000   Biso      1.000     Cu          0.9901610000000001  
         Cu4       1.0000    0.50000   0.50000   0.50000   Biso      1.000     Cu          0.9901639999999999  
         Cu5       1.0000    0.50000   0.00000   0.50000   Biso      1.000     Cu          0.990165  
         Cu6       1.0000    0.00000   0.50000   0.50000   Biso      1.000     Cu          0.9901629999999999  
         Dy1       1.0000    0.33333   0.66666   0.75000   Biso      1.000     Dy          1.967371  
         Dy2       1.0000    0.66667   0.33334   0.75000   Biso      1.000     Dy          1.9673669999999999  
         Dy3       1.0000    0.66667   0.33334   0.25000   Biso      1.000     Dy          1.9673669999999999  
         Dy4       1.0000    0.33333   0.66666   0.25000   Biso      1.000     Dy          1.967371  
         H1        1.0000    0.71760   0.08750   0.23200   Biso      1.000     H          0.108636  
         H2        1.0000    0.63400   0.79630   0.84040   Biso      1.000     H          0.121892  
         H3        1.0000    0.91250   0.63010   0.76800   Biso      1.000     H          0.10863900000000001           
         H4        1.0000    0.83770   0.63400   0.84040   Biso      1.000     H          0.121902  
         H5        1.0000    0.71760   0.08750   0.76800   Biso      1.000     H          0.108636  
         H6        1.0000    0.79630   0.16230   0.84040   Biso      1.000     H          0.12188399999999999           
         H7        1.0000    0.36990   0.28240   0.76800   Biso      1.000     H          0.108634  
         H8        1.0000    0.36600   0.20370   0.84040   Biso      1.000     H          0.121885  
         H9        1.0000    0.71760   0.63010   0.73200   Biso      1.000     H          0.10863800000000001           
         H10       1.0000    0.79630   0.63400   0.65960   Biso      1.000     H          0.121901  
         H11       1.0000    0.91250   0.28240   0.73200   Biso      1.000     H          0.108635  
         H12       1.0000    0.63010   0.71760   0.76800   Biso      1.000     H          0.10863699999999998           
         H13       1.0000    0.83770   0.20370   0.65960   Biso      1.000     H          0.12189000000000001           
         H14       1.0000    0.28240   0.36990   0.73200   Biso      1.000     H          0.10864000000000001           
         H15       1.0000    0.20370   0.36600   0.65960   Biso      1.000     H          0.121905  
         H16       1.0000    0.63010   0.91250   0.73200   Biso      1.000     H          0.10863699999999998           
         H17       1.0000    0.63400   0.83770   0.65960   Biso      1.000     H          0.121887  
         H18       1.0000    0.08750   0.71760   0.73200   Biso      1.000     H          0.10863699999999998           
         H19       1.0000    0.16230   0.79630   0.65960   Biso      1.000     H          0.121894  
         H20       1.0000    0.79630   0.16230   0.15960   Biso      1.000     H          0.12188299999999999           
         H21       1.0000    0.36990   0.08750   0.73200   Biso      1.000     H          0.108635  
         H22       1.0000    0.20370   0.83770   0.84040   Biso      1.000     H          0.121887  
         H23       1.0000    0.36600   0.16230   0.65960   Biso      1.000     H          0.12188   
         H24       1.0000    0.16230   0.36600   0.84040   Biso      1.000     H          0.12190699999999999           
         H25       1.0000    0.83770   0.63400   0.15960   Biso      1.000     H          0.121903  
         H26       1.0000    0.28240   0.91250   0.76800   Biso      1.000     H          0.10863699999999998           
         H27       1.0000    0.91250   0.63010   0.23200   Biso      1.000     H          0.10863800000000001           
         H28       1.0000    0.36990   0.28240   0.23200   Biso      1.000     H          0.108635  
         H29       1.0000    0.36600   0.20370   0.15960   Biso      1.000     H          0.12188900000000001           
         H30       1.0000    0.08750   0.36990   0.23200   Biso      1.000     H          0.108641  
         H31       1.0000    0.16230   0.36600   0.15960   Biso      1.000     H          0.12190899999999999           
         H32       1.0000    0.28240   0.91250   0.23200   Biso      1.000     H          0.10863800000000001           
         H33       1.0000    0.63010   0.71760   0.23200   Biso      1.000     H          0.108636  
         H34       1.0000    0.63400   0.79630   0.15960   Biso      1.000     H          0.12189100000000001           
         H35       1.0000    0.28240   0.36990   0.26800   Biso      1.000     H          0.10864000000000001           
         H36       1.0000    0.20370   0.36600   0.34040   Biso      1.000     H          0.121906  
         H37       1.0000    0.20370   0.83770   0.15960   Biso      1.000     H          0.121887  
         H38       1.0000    0.63010   0.91250   0.26800   Biso      1.000     H          0.10863699999999998           
         H39       1.0000    0.63400   0.83770   0.34040   Biso      1.000     H          0.121886  
         H40       1.0000    0.08750   0.71760   0.26800   Biso      1.000     H          0.108636  
         H41       1.0000    0.16230   0.79630   0.34040   Biso      1.000     H          0.121894  
         H42       1.0000    0.71760   0.63010   0.26800   Biso      1.000     H          0.10863800000000001           
         H43       1.0000    0.79630   0.63400   0.34040   Biso      1.000     H          0.121901  
         H44       1.0000    0.36990   0.08750   0.26800   Biso      1.000     H          0.108636  
         H45       1.0000    0.36600   0.16230   0.34040   Biso      1.000     H          0.12188399999999999           
         H46       1.0000    0.91250   0.28240   0.26800   Biso      1.000     H          0.108634  
         H47       1.0000    0.83770   0.20370   0.34040   Biso      1.000     H          0.12188900000000001           
         H48       1.0000    0.08750   0.36990   0.76800   Biso      1.000     H          0.10864000000000001           
         O1        1.0000    0.05290   0.44260   0.08940   Biso      1.000     O          -0.5644   
         O2        1.0000    0.19550   0.58300   0.14440   Biso      1.000     O          -0.6406689999999999           
         O3        1.0000    0.38970   0.94710   0.08940   Biso      1.000     O          -0.5644100000000001           
         O4        1.0000    0.38750   0.80450   0.14440   Biso      1.000     O          -0.640677           
         O5        1.0000    0.55740   0.61030   0.08940   Biso      1.000     O          -0.5644060000000001           
         O6        1.0000    0.55740   0.94710   0.41060   Biso      1.000     O          -0.5644100000000001           
         O7        1.0000    0.05290   0.61030   0.41060   Biso      1.000     O          -0.564405           
         O8        1.0000    0.38970   0.44260   0.41060   Biso      1.000     O          -0.5644   
         O9        1.0000    0.38750   0.58300   0.35560   Biso      1.000     O          -0.64067  
         O10       1.0000    0.41700   0.80450   0.35560   Biso      1.000     O          -0.640677           
         O11       1.0000    0.58300   0.38750   0.14440   Biso      1.000     O          -0.640677           
         O12       1.0000    0.41700   0.61250   0.14440   Biso      1.000     O          -0.640678           
         O13       1.0000    0.44260   0.38970   0.08940   Biso      1.000     O          -0.564407           
         O14       1.0000    0.47230   0.23615   0.25000   Biso      1.000     O          -0.222746           
         O15       1.0000    0.61030   0.05290   0.08940   Biso      1.000     O          -0.564411           
         O16       1.0000    0.80450   0.41700   0.14440   Biso      1.000     O          -0.6406689999999999           
         O17       1.0000    0.94710   0.55740   0.08940   Biso      1.000     O          -0.5644020000000001           
         O18       1.0000    0.23615   0.76385   0.75000   Biso      1.000     O          -0.222748           
         O19       1.0000    0.52770   0.76385   0.75000   Biso      1.000     O          -0.22274499999999997          
         O20       1.0000    0.23615   0.47230   0.75000   Biso      1.000     O          -0.22280500000000003          
         O21       1.0000    0.76385   0.23615   0.75000   Biso      1.000     O          -0.22274699999999997          
         O22       1.0000    0.47230   0.23615   0.75000   Biso      1.000     O          -0.222748           
         O23       1.0000    0.76385   0.52770   0.75000   Biso      1.000     O          -0.22280500000000003          
         O24       1.0000    0.76385   0.23615   0.25000   Biso      1.000     O          -0.222748           
         O25       1.0000    0.76385   0.52770   0.25000   Biso      1.000     O          -0.222806           
         O26       1.0000    0.19550   0.61250   0.35560   Biso      1.000     O          -0.640677           
         O27       1.0000    0.23615   0.76385   0.25000   Biso      1.000     O          -0.22274699999999997          
         O28       1.0000    0.61250   0.19550   0.14440   Biso      1.000     O          -0.640676           
         O29       1.0000    0.61030   0.55740   0.41060   Biso      1.000     O          -0.5644020000000001           
         O30       1.0000    0.38750   0.58300   0.64440   Biso      1.000     O          -0.64067  
         O31       1.0000    0.44260   0.05290   0.41060   Biso      1.000     O          -0.564411           
         O32       1.0000    0.52770   0.76385   0.25000   Biso      1.000     O          -0.22274699999999997          
         O33       1.0000    0.19550   0.61250   0.64440   Biso      1.000     O          -0.640677           
         O34       1.0000    0.05290   0.61030   0.58940   Biso      1.000     O          -0.564405           
         O35       1.0000    0.41700   0.80450   0.64440   Biso      1.000     O          -0.640677           
         O36       1.0000    0.55740   0.94710   0.58940   Biso      1.000     O          -0.5644100000000001           
         O37       1.0000    0.38970   0.44260   0.58940   Biso      1.000     O          -0.564399           
         O38       1.0000    0.80450   0.38750   0.64440   Biso      1.000     O          -0.640677           
         O39       1.0000    0.94710   0.38970   0.58940   Biso      1.000     O          -0.564407           
         O40       1.0000    0.58300   0.19550   0.64440   Biso      1.000     O          -0.640677           
         O41       1.0000    0.44260   0.05290   0.58940   Biso      1.000     O          -0.564412           
         O42       1.0000    0.61250   0.41700   0.64440   Biso      1.000     O          -0.6406689999999999           
         O43       1.0000    0.61030   0.55740   0.58940   Biso      1.000     O          -0.5644020000000001           
         O44       1.0000    0.58300   0.38750   0.85560   Biso      1.000     O          -0.640678           
         O45       1.0000    0.44260   0.38970   0.91060   Biso      1.000     O          -0.564408           
         O46       1.0000    0.61250   0.19550   0.85560   Biso      1.000     O          -0.640676           
         O47       1.0000    0.61030   0.05290   0.91060   Biso      1.000     O          -0.564411           
         O48       1.0000    0.80450   0.41700   0.85560   Biso      1.000     O          -0.6406689999999999           
         O49       1.0000    0.94710   0.55740   0.91060   Biso      1.000     O          -0.5644020000000001           
         O50       1.0000    0.41700   0.61250   0.85560   Biso      1.000     O          -0.640678           
         O51       1.0000    0.55740   0.61030   0.91060   Biso      1.000     O          -0.564405           
         O52       1.0000    0.38750   0.80450   0.85560   Biso      1.000     O          -0.640677           
         O53       1.0000    0.38970   0.94710   0.91060   Biso      1.000     O          -0.564409           
         O54       1.0000    0.19550   0.58300   0.85560   Biso      1.000     O          -0.6406689999999999           
         O55       1.0000    0.05290   0.44260   0.91060   Biso      1.000     O          -0.5644   
         O56       1.0000    0.80450   0.38750   0.35560   Biso      1.000     O          -0.640676           
         O57       1.0000    0.94710   0.38970   0.41060   Biso      1.000     O          -0.564407           
         O58       1.0000    0.58300   0.19550   0.35560   Biso      1.000     O          -0.640676           
         O59       1.0000    0.61250   0.41700   0.35560   Biso      1.000     O          -0.6406689999999999           
         O60       1.0000    0.23615   0.47230   0.25000   Biso      1.000     O          -0.22280300000000003 