
##########################################################################
#               Crystallographic Information Format file
#               Produced by PyCifRW module
#
#  This is a CIF file.  CIF has been adopted by the International
#  Union of Crystallography as the standard for data archiving and
#  transmission.
#
#  For information on this file format, follow the CIF links at
#  http://www.iucr.org
##########################################################################

data_image0

_cell_length_a                          7.8958
_cell_length_b                          9.6083
_cell_length_c                          15.514
_cell_angle_alpha                       101.85
_cell_angle_beta                        90
_cell_angle_gamma                       90
_symmetry_space_group_name_H-M          'P 1'
_symmetry_int_tables_number             1
loop_
  _symmetry_equiv_pos_as_xyz
         'x, y, z' 
loop_
  _atom_site_label
  _atom_site_occupancy
  _atom_site_fract_x
  _atom_site_fract_y
  _atom_site_fract_z
  _atom_site_thermal_displace_type
  _atom_site_B_iso_or_equiv
  _atom_site_type_symbol
  _atom_site_charge
         C1        1.0000    0.33420   0.09860   0.97110   Biso      1.000     C          0.550053  
         C2        1.0000    0.11000   0.66510   0.12900   Biso      1.000     C          -0.112801           
         C3        1.0000    0.10050   0.75460   0.20940   Biso      1.000     C          -0.040003           
         C4        1.0000    0.23730   0.84420   0.23720   Biso      1.000     C          -0.060254999999999996         
         C5        1.0000    0.37580   0.84150   0.18140   Biso      1.000     C          0.070631  
         C6        1.0000    0.22880   0.94460   0.32650   Biso      1.000     C          0.654882  
         C7        1.0000    0.70600   0.24400   0.48100   Biso      1.000     C          0.9003200000000001  
         C8        1.0000    0.24850   0.36640   0.33660   Biso      1.000     C          0.669603  
         C9        1.0000    0.29910   0.29810   0.23850   Biso      1.000     C          -0.066275           
         C10       1.0000    0.17950   0.31500   0.17540   Biso      1.000     C          0.088838  
         C11       1.0000    0.34130   0.17490   0.06670   Biso      1.000     C          0.107401  
         C12       1.0000    0.46450   0.15920   0.12530   Biso      1.000     C          -0.11439200000000001          
         C13       1.0000    0.43980   0.22510   0.21630   Biso      1.000     C          -0.049542           
         C14       1.0000    0.75410   0.41430   0.02000   Biso      1.000     C          0.549999  
         C15       1.0000    0.74160   0.32700   0.92570   Biso      1.000     C          0.12501500000000002           
         C16       1.0000    0.61000   0.33490   0.87100   Biso      1.000     C          -0.112784           
         C17       1.0000    0.60050   0.24540   0.79060   Biso      1.000     C          -0.040005           
         C18       1.0000    0.73730   0.15580   0.76280   Biso      1.000     C          -0.060254999999999996         
         C19       1.0000    0.87580   0.15850   0.81860   Biso      1.000     C          0.070631  
         C20       1.0000    0.72880   0.05540   0.67350   Biso      1.000     C          0.654882  
         C21       1.0000    0.68160   0.73320   0.45480   Biso      1.000     C          0.923175  
         C22       1.0000    0.20600   0.75600   0.51900   Biso      1.000     C          0.9003200000000001  
         C23       1.0000    0.24160   0.67300   0.07430   Biso      1.000     C          0.12503   
         C24       1.0000    0.25410   0.58570   0.98000   Biso      1.000     C          0.55      
         C25       1.0000    0.18160   0.26680   0.54520   Biso      1.000     C          0.923175  
         C26       1.0000    0.93980   0.77490   0.78370   Biso      1.000     C          -0.04958  
         C27       1.0000    0.96450   0.84080   0.87470   Biso      1.000     C          -0.11440299999999999          
         C28       1.0000    0.84130   0.82510   0.93330   Biso      1.000     C          0.10741400000000001           
         C29       1.0000    0.67950   0.68500   0.82460   Biso      1.000     C          0.088834  
         C30       1.0000    0.79910   0.70190   0.76150   Biso      1.000     C          -0.066234           
         C31       1.0000    0.74850   0.63360   0.66340   Biso      1.000     C          0.6696    
         C32       1.0000    0.83420   0.90140   0.02890   Biso      1.000     C          0.5500520000000001  
         Cu1       1.0000    0.54380   0.74651   0.00557   Biso      1.000     Cu          0.775812  
         Cu2       1.0000    0.04380   0.25349   0.99443   Biso      1.000     Cu          0.7758109999999999  
         H1        1.0000    0.06200   0.89280   0.89300   Biso      1.000     H          0.141013  
         H2        1.0000    0.02070   0.78340   0.74150   Biso      1.000     H          0.12871300000000002           
         H3        1.0000    0.02520   0.59800   0.11170   Biso      1.000     H          0.136474  
         H4        1.0000    0.00510   0.75580   0.24470   Biso      1.000     H          0.118547  
         H5        1.0000    0.58340   0.63040   0.80740   Biso      1.000     H          0.105718  
         H6        1.0000    0.08340   0.36960   0.19260   Biso      1.000     H          0.105718  
         H7        1.0000    0.56200   0.10720   0.10700   Biso      1.000     H          0.141012  
         H8        1.0000    0.52070   0.21660   0.25850   Biso      1.000     H          0.12871   
         H9        1.0000    0.52520   0.40200   0.88830   Biso      1.000     H          0.136472  
         H10       1.0000    0.50510   0.24420   0.75530   Biso      1.000     H          0.118547  
         H11       1.0000    0.97010   0.10240   0.79980   Biso      1.000     H          0.111577  
         H12       1.0000    0.47010   0.89760   0.20020   Biso      1.000     H          0.111577  
         N1        1.0000    0.87400   0.24260   0.90060   Biso      1.000     N          -0.22915500000000003          
         N2        1.0000    0.20090   0.25400   0.09110   Biso      1.000     N          -0.22068000000000002          
         N3        1.0000    0.70090   0.74600   0.90890   Biso      1.000     N          -0.220681           
         N4        1.0000    0.37400   0.75740   0.09940   Biso      1.000     N          -0.22915700000000003          
         O1        1.0000    0.60480   0.61800   0.46150   Biso      1.000     O          -0.7919579999999999           
         O2        1.0000    0.60980   0.85490   0.46990   Biso      1.000     O          -0.798176           
         O3        1.0000    0.83490   0.22660   0.43020   Biso      1.000     O          -0.7602479999999999           
         O4        1.0000    0.83580   0.72800   0.43210   Biso      1.000     O          -0.812789           
         O5        1.0000    0.57990   0.01430   0.65080   Biso      1.000     O          -0.689429           
         O6        1.0000    0.86350   0.02110   0.63090   Biso      1.000     O          -0.644721           
         O7        1.0000    0.65520   0.51140   0.04650   Biso      1.000     O          -0.539572           
         O8        1.0000    0.87570   0.37510   0.06480   Biso      1.000     O          -0.552393           
         O9        1.0000    0.44420   0.00820   0.94350   Biso      1.000     O          -0.554489           
         O10       1.0000    0.21490   0.13350   0.92630   Biso      1.000     O          -0.541326           
         O11       1.0000    0.37330   0.38070   0.39000   Biso      1.000     O          -0.670619           
         O12       1.0000    0.09910   0.39340   0.34890   Biso      1.000     O          -0.648507           
         O13       1.0000    0.63730   0.13390   0.50170   Biso      1.000     O          -0.805588           
         O14       1.0000    0.15610   0.62810   0.48680   Biso      1.000     O          -0.798879           
         O15       1.0000    0.65610   0.37190   0.51320   Biso      1.000     O          -0.798879           
         O16       1.0000    0.13730   0.86610   0.49830   Biso      1.000     O          -0.805588           
         O17       1.0000    0.10980   0.14510   0.53010   Biso      1.000     O          -0.798176           
         O18       1.0000    0.33580   0.27200   0.56790   Biso      1.000     O          -0.812789           
         O19       1.0000    0.07990   0.98570   0.34920   Biso      1.000     O          -0.689429           
         O20       1.0000    0.36350   0.97890   0.36910   Biso      1.000     O          -0.644722           
         O21       1.0000    0.15520   0.48860   0.95350   Biso      1.000     O          -0.539573           
         O22       1.0000    0.37570   0.62490   0.93520   Biso      1.000     O          -0.552393           
         O23       1.0000    0.94420   0.99180   0.05650   Biso      1.000     O          -0.554489           
         O24       1.0000    0.71490   0.86650   0.07370   Biso      1.000     O          -0.541326           
         O25       1.0000    0.87330   0.61930   0.61000   Biso      1.000     O          -0.670619           
         O26       1.0000    0.59910   0.60660   0.65110   Biso      1.000     O          -0.648507           
         O27       1.0000    0.33490   0.77340   0.56980   Biso      1.000     O          -0.760247           
         O28       1.0000    0.10480   0.38200   0.53850   Biso      1.000     O          -0.7919579999999999           
         Sm1       1.0000    0.88659   0.98382   0.46310   Biso      1.000     Sm          2.180103  
         Sm2       1.0000    0.89843   0.48926   0.45797   Biso      1.000     Sm          2.163916  
         Sm3       1.0000    0.38659   0.01618   0.53690   Biso      1.000     Sm          2.180103  
         Sm4       1.0000    0.39843   0.51074   0.54203   Biso      1.000     Sm          2.163916 