
##########################################################################
#               Crystallographic Information Format file
#               Produced by PyCifRW module
#
#  This is a CIF file.  CIF has been adopted by the International
#  Union of Crystallography as the standard for data archiving and
#  transmission.
#
#  For information on this file format, follow the CIF links at
#  http://www.iucr.org
##########################################################################

data_image0

_cell_length_a                          5.224
_cell_length_b                          8.8
_cell_length_c                          26.055
_cell_angle_alpha                       90
_cell_angle_beta                        90
_cell_angle_gamma                       97.38
_symmetry_space_group_name_H-M          'P 1'
_symmetry_int_tables_number             1
loop_
  _symmetry_equiv_pos_as_xyz
         'x, y, z' 
loop_
  _atom_site_label
  _atom_site_occupancy
  _atom_site_fract_x
  _atom_site_fract_y
  _atom_site_fract_z
  _atom_site_thermal_displace_type
  _atom_site_B_iso_or_equiv
  _atom_site_type_symbol
  _atom_site_charge
         C1        1.0000    0.58680   0.53300   0.24140   Biso      1.000     C          0.6747890000000001  
         C2        1.0000    0.07640   0.85830   0.67597   Biso      1.000     C          -0.325664           
         C3        1.0000    0.29000   0.98410   0.68985   Biso      1.000     C          -0.34029  
         C4        1.0000    0.41320   0.96700   0.74140   Biso      1.000     C          0.6747890000000001  
         C5        1.0000    0.78030   0.51050   0.55961   Biso      1.000     C          0.669153  
         C6        1.0000    0.90970   0.54920   0.50886   Biso      1.000     C          -0.30449299999999996          
         C7        1.0000    0.83500   0.79540   0.16850   Biso      1.000     C          0.7323890000000001  
         C8        1.0000    0.92360   0.64170   0.17597   Biso      1.000     C          -0.325666           
         C9        1.0000    0.71000   0.51590   0.18985   Biso      1.000     C          -0.340292           
         C10       1.0000    0.29000   0.48410   0.81015   Biso      1.000     C          -0.340289           
         C11       1.0000    0.21970   0.98950   0.05961   Biso      1.000     C          0.6691520000000001  
         C12       1.0000    0.09030   0.95080   0.00886   Biso      1.000     C          -0.304491           
         C13       1.0000    0.83500   0.29540   0.33150   Biso      1.000     C          0.732388  
         C14       1.0000    0.92360   0.14170   0.32403   Biso      1.000     C          -0.32566300000000004          
         C15       1.0000    0.71000   0.01590   0.31015   Biso      1.000     C          -0.340291           
         C16       1.0000    0.58680   0.03300   0.25860   Biso      1.000     C          0.6747890000000001  
         C17       1.0000    0.21970   0.48950   0.44039   Biso      1.000     C          0.6691520000000001  
         C18       1.0000    0.09030   0.45080   0.49114   Biso      1.000     C          -0.304492           
         C19       1.0000    0.16500   0.70460   0.66850   Biso      1.000     C          0.732388  
         C20       1.0000    0.16500   0.20460   0.83150   Biso      1.000     C          0.7323890000000001  
         C21       1.0000    0.07640   0.35830   0.82403   Biso      1.000     C          -0.325667           
         C22       1.0000    0.90970   0.04920   0.99114   Biso      1.000     C          -0.30449  
         C23       1.0000    0.78030   0.01050   0.94039   Biso      1.000     C          0.669151  
         C24       1.0000    0.41320   0.46700   0.75860   Biso      1.000     C          0.674788  
         H1        1.0000    0.00050   0.34740   0.48890   Biso      1.000     H          0.145569  
         H2        1.0000    0.99500   0.88000   0.64420   Biso      1.000     H          0.153569  
         H3        1.0000    0.94400   0.85100   0.70160   Biso      1.000     H          0.150385  
         H4        1.0000    0.41400   0.98700   0.66470   Biso      1.000     H          0.14941500000000002           
         H5        1.0000    0.23100   0.07900   0.69430   Biso      1.000     H          0.154669  
         H6        1.0000    0.77620   0.55000   0.48300   Biso      1.000     H          0.135484  
         H7        1.0000    0.99950   0.65260   0.51110   Biso      1.000     H          0.145569  
         H8        1.0000    0.00500   0.62000   0.14420   Biso      1.000     H          0.15357   
         H9        1.0000    0.05600   0.64900   0.20160   Biso      1.000     H          0.150386  
         H10       1.0000    0.22380   0.45000   0.51700   Biso      1.000     H          0.135483  
         H11       1.0000    0.58600   0.51300   0.16470   Biso      1.000     H          0.14941600000000002           
         H12       1.0000    0.22380   0.95000   0.98300   Biso      1.000     H          0.135483  
         H13       1.0000    0.00050   0.84740   0.01110   Biso      1.000     H          0.145568  
         H14       1.0000    0.00500   0.12000   0.35580   Biso      1.000     H          0.153569  
         H15       1.0000    0.05600   0.14900   0.29840   Biso      1.000     H          0.150385  
         H16       1.0000    0.58600   0.01300   0.33530   Biso      1.000     H          0.14941500000000002           
         H17       1.0000    0.99950   0.15260   0.98890   Biso      1.000     H          0.145569  
         H18       1.0000    0.77620   0.05000   0.01700   Biso      1.000     H          0.135483  
         H19       1.0000    0.23100   0.57900   0.80570   Biso      1.000     H          0.154668  
         H20       1.0000    0.41400   0.48700   0.83530   Biso      1.000     H          0.14941500000000002           
         H21       1.0000    0.76900   0.92100   0.30570   Biso      1.000     H          0.154668  
         H22       1.0000    0.99500   0.38000   0.85580   Biso      1.000     H          0.15357   
         H23       1.0000    0.76900   0.42100   0.19430   Biso      1.000     H          0.154669  
         H24       1.0000    0.94400   0.35100   0.79840   Biso      1.000     H          0.150386  
         Lu1       1.0000    0.59652   0.47856   0.65917   Biso      1.000     Lu          1.7354040000000002  
         Lu2       1.0000    0.59652   0.97856   0.84083   Biso      1.000     Lu          1.7354040000000002  
         Lu3       1.0000    0.40348   0.52144   0.34083   Biso      1.000     Lu          1.7354049999999999  
         Lu4       1.0000    0.40348   0.02144   0.15917   Biso      1.000     Lu          1.7354049999999999  
         O1        1.0000    0.30230   0.38020   0.72414   Biso      1.000     O          -0.631754           
         O2        1.0000    0.62690   0.54610   0.74838   Biso      1.000     O          -0.609374           
         O3        1.0000    0.99590   0.08970   0.83613   Biso      1.000     O          -0.656864           
         O4        1.0000    0.40000   0.19240   0.83354   Biso      1.000     O          -0.574206           
         O5        1.0000    0.35780   0.39630   0.42179   Biso      1.000     O          -0.618286           
         O6        1.0000    0.18870   0.60990   0.41599   Biso      1.000     O          -0.639895           
         O7        1.0000    0.69770   0.11980   0.22414   Biso      1.000     O          -0.631754           
         O8        1.0000    0.37310   0.95390   0.24838   Biso      1.000     O          -0.609374           
         O9        1.0000    0.00410   0.41030   0.33613   Biso      1.000     O          -0.6568649999999999           
         O10       1.0000    0.60000   0.30760   0.33354   Biso      1.000     O          -0.574206           
         O11       1.0000    0.35780   0.89630   0.07821   Biso      1.000     O          -0.618286           
         O12       1.0000    0.18870   0.10990   0.08401   Biso      1.000     O          -0.639895           
         O13       1.0000    0.69770   0.61980   0.27586   Biso      1.000     O          -0.631754           
         O14       1.0000    0.37310   0.45390   0.25162   Biso      1.000     O          -0.609374           
         O15       1.0000    0.00410   0.91030   0.16387   Biso      1.000     O          -0.656864           
         O16       1.0000    0.60000   0.80760   0.16646   Biso      1.000     O          -0.574205           
         O17       1.0000    0.64220   0.60370   0.57821   Biso      1.000     O          -0.618286           
         O18       1.0000    0.81130   0.39010   0.58401   Biso      1.000     O          -0.639896           
         O19       1.0000    0.30230   0.88020   0.77586   Biso      1.000     O          -0.631754           
         O20       1.0000    0.62690   0.04610   0.75162   Biso      1.000     O          -0.609374           
         O21       1.0000    0.99590   0.58970   0.66387   Biso      1.000     O          -0.6568649999999999           
         O22       1.0000    0.40000   0.69240   0.66646   Biso      1.000     O          -0.574205           
         O23       1.0000    0.81130   0.89010   0.91599   Biso      1.000     O          -0.639895           
         O24       1.0000    0.64220   0.10370   0.92179   Biso      1.000     O          -0.6182850000000001 