
##########################################################################
#               Crystallographic Information Format file
#               Produced by PyCifRW module
#
#  This is a CIF file.  CIF has been adopted by the International
#  Union of Crystallography as the standard for data archiving and
#  transmission.
#
#  For information on this file format, follow the CIF links at
#  http://www.iucr.org
##########################################################################

data_image0

_cell_length_a                          12.614
_cell_length_b                          22.857
_cell_length_c                          14.604
_cell_angle_alpha                       90
_cell_angle_beta                        90
_cell_angle_gamma                       90
_symmetry_space_group_name_H-M          'P 1'
_symmetry_int_tables_number             1
loop_
  _symmetry_equiv_pos_as_xyz
         'x, y, z' 
loop_
  _atom_site_label
  _atom_site_occupancy
  _atom_site_fract_x
  _atom_site_fract_y
  _atom_site_fract_z
  _atom_site_thermal_displace_type
  _atom_site_B_iso_or_equiv
  _atom_site_type_symbol
  _atom_site_charge
         C1        1.0000    0.65474   0.26647   0.57010   Biso      1.000     C          0.318102  
         C2        1.0000    0.89430   0.40219   0.41260   Biso      1.000     C          -0.122615           
         C3        1.0000    0.93650   0.42060   0.49568   Biso      1.000     C          -0.001505           
         C4        1.0000    0.59070   0.37465   0.75960   Biso      1.000     C          0.080654  
         C5        1.0000    0.89620   0.39752   0.57650   Biso      1.000     C          -0.122838           
         C6        1.0000    0.81410   0.13947   0.91025   Biso      1.000     C          -0.153162           
         C7        1.0000    0.77570   0.16429   0.99172   Biso      1.000     C          0.135486  
         C8        1.0000    0.65474   0.23353   0.07010   Biso      1.000     C          0.318103  
         C9        1.0000    0.65509   0.23168   0.90824   Biso      1.000     C          0.316646  
         C10       1.0000    0.69682   0.21048   0.98986   Biso      1.000     C          -0.239519           
         C11       1.0000    0.41470   0.12414   0.22340   Biso      1.000     C          0.062726  
         C12       1.0000    0.41120   0.06341   0.22778   Biso      1.000     C          -0.168037           
         C13       1.0000    0.50335   0.03251   0.24770   Biso      1.000     C          0.109223  
         C14       1.0000    0.81710   0.14397   0.07432   Biso      1.000     C          -0.158154           
         C15       1.0000    0.59540   0.06457   0.26340   Biso      1.000     C          -0.169203           
         C16       1.0000    0.02370   0.03302   0.99790   Biso      1.000     C          0.024353  
         C17       1.0000    0.09140   0.03714   0.91610   Biso      1.000     C          0.247872  
         C18       1.0000    0.09160   0.04053   0.07950   Biso      1.000     C          0.247822  
         C19       1.0000    0.89430   0.09781   0.91260   Biso      1.000     C          -0.122616           
         C20       1.0000    0.93650   0.07940   0.99568   Biso      1.000     C          -0.001506           
         C21       1.0000    0.59070   0.12535   0.25960   Biso      1.000     C          0.080655  
         C22       1.0000    0.89620   0.10248   0.07650   Biso      1.000     C          -0.12283  
         C23       1.0000    0.09160   0.45947   0.57950   Biso      1.000     C          0.247821  
         C24       1.0000    0.09140   0.46286   0.41610   Biso      1.000     C          0.247873  
         C25       1.0000    0.02370   0.46698   0.49790   Biso      1.000     C          0.024353  
         C26       1.0000    0.59540   0.43543   0.76340   Biso      1.000     C          -0.169204           
         C27       1.0000    0.34526   0.23353   0.57010   Biso      1.000     C          0.318102  
         C28       1.0000    0.34491   0.23168   0.40824   Biso      1.000     C          0.316646  
         C29       1.0000    0.30318   0.21048   0.48986   Biso      1.000     C          -0.239519           
         C30       1.0000    0.58530   0.12414   0.72340   Biso      1.000     C          0.062726  
         C31       1.0000    0.58880   0.06341   0.72778   Biso      1.000     C          -0.168037           
         C32       1.0000    0.49665   0.03251   0.74770   Biso      1.000     C          0.109223  
         C33       1.0000    0.40460   0.06457   0.76340   Biso      1.000     C          -0.169203           
         C34       1.0000    0.97630   0.03302   0.49790   Biso      1.000     C          0.024353  
         C35       1.0000    0.90860   0.03714   0.41610   Biso      1.000     C          0.247873  
         C36       1.0000    0.90840   0.04053   0.57950   Biso      1.000     C          0.247822  
         C37       1.0000    0.18590   0.36053   0.91025   Biso      1.000     C          -0.153162           
         C38       1.0000    0.10570   0.09781   0.41260   Biso      1.000     C          -0.122616           
         C39       1.0000    0.40930   0.12535   0.75960   Biso      1.000     C          0.080654  
         C40       1.0000    0.10380   0.10248   0.57650   Biso      1.000     C          -0.122841           
         C41       1.0000    0.81410   0.36053   0.41025   Biso      1.000     C          -0.153162           
         C42       1.0000    0.77570   0.33571   0.49172   Biso      1.000     C          0.135485  
         C43       1.0000    0.65509   0.26832   0.40824   Biso      1.000     C          0.316646  
         C44       1.0000    0.69682   0.28952   0.48986   Biso      1.000     C          -0.239519           
         C45       1.0000    0.41470   0.37586   0.72340   Biso      1.000     C          0.062726  
         C46       1.0000    0.41120   0.43659   0.72778   Biso      1.000     C          -0.168037           
         C47       1.0000    0.50335   0.46749   0.74770   Biso      1.000     C          0.109225  
         C48       1.0000    0.81710   0.35603   0.57432   Biso      1.000     C          -0.158147           
         C49       1.0000    0.06350   0.07940   0.49568   Biso      1.000     C          -0.001503           
         C50       1.0000    0.22430   0.16429   0.49172   Biso      1.000     C          0.135485  
         C51       1.0000    0.22430   0.33571   0.99172   Biso      1.000     C          0.135486  
         C52       1.0000    0.34491   0.26832   0.90824   Biso      1.000     C          0.316646  
         C53       1.0000    0.89430   0.90219   0.58740   Biso      1.000     C          -0.122615           
         C54       1.0000    0.93650   0.92060   0.50432   Biso      1.000     C          -0.001505           
         C55       1.0000    0.59070   0.87465   0.24040   Biso      1.000     C          0.080654  
         C56       1.0000    0.89620   0.89752   0.42350   Biso      1.000     C          -0.122838           
         C57       1.0000    0.18590   0.63947   0.58975   Biso      1.000     C          -0.153162           
         C58       1.0000    0.22430   0.66429   0.50828   Biso      1.000     C          0.135486  
         C59       1.0000    0.34526   0.73353   0.42990   Biso      1.000     C          0.318102  
         C60       1.0000    0.34491   0.73168   0.59176   Biso      1.000     C          0.316646  
         C61       1.0000    0.30318   0.71048   0.51014   Biso      1.000     C          -0.239519           
         C62       1.0000    0.58530   0.62414   0.27660   Biso      1.000     C          0.062726  
         C63       1.0000    0.58880   0.56341   0.27222   Biso      1.000     C          -0.168037           
         C64       1.0000    0.49665   0.53251   0.25230   Biso      1.000     C          0.109224  
         C65       1.0000    0.18290   0.64397   0.42568   Biso      1.000     C          -0.158154           
         C66       1.0000    0.40460   0.56457   0.23660   Biso      1.000     C          -0.169203           
         C67       1.0000    0.97630   0.53302   0.50210   Biso      1.000     C          0.024353  
         C68       1.0000    0.90860   0.53714   0.58390   Biso      1.000     C          0.247873  
         C69       1.0000    0.90840   0.54053   0.42050   Biso      1.000     C          0.247822  
         C70       1.0000    0.10570   0.59781   0.58740   Biso      1.000     C          -0.122616           
         C71       1.0000    0.06350   0.57940   0.50432   Biso      1.000     C          -0.001506           
         C72       1.0000    0.40930   0.62535   0.24040   Biso      1.000     C          0.080654  
         C73       1.0000    0.10380   0.60248   0.42350   Biso      1.000     C          -0.12283  
         C74       1.0000    0.09160   0.95947   0.42050   Biso      1.000     C          0.247821  
         C75       1.0000    0.09140   0.96286   0.58390   Biso      1.000     C          0.247873  
         C76       1.0000    0.02370   0.96698   0.50210   Biso      1.000     C          0.024354  
         C77       1.0000    0.59540   0.93543   0.23660   Biso      1.000     C          -0.169205           
         C78       1.0000    0.30318   0.28952   0.98986   Biso      1.000     C          -0.239519           
         C79       1.0000    0.58530   0.37586   0.22340   Biso      1.000     C          0.062726  
         C80       1.0000    0.58880   0.43659   0.22778   Biso      1.000     C          -0.168037           
         C81       1.0000    0.49665   0.46749   0.24770   Biso      1.000     C          0.109225  
         C82       1.0000    0.18290   0.35603   0.07432   Biso      1.000     C          -0.158154           
         C83       1.0000    0.40460   0.43543   0.26340   Biso      1.000     C          -0.169203           
         C84       1.0000    0.97630   0.46698   0.99790   Biso      1.000     C          0.024353  
         C85       1.0000    0.90860   0.46286   0.91610   Biso      1.000     C          0.247873  
         C86       1.0000    0.90840   0.45947   0.07950   Biso      1.000     C          0.247821  
         C87       1.0000    0.10570   0.40219   0.91260   Biso      1.000     C          -0.122616           
         C88       1.0000    0.34526   0.26647   0.07010   Biso      1.000     C          0.318102  
         C89       1.0000    0.06350   0.42060   0.99568   Biso      1.000     C          -0.001506           
         C90       1.0000    0.10380   0.39752   0.07650   Biso      1.000     C          -0.122831           
         C91       1.0000    0.81410   0.86053   0.58975   Biso      1.000     C          -0.153162           
         C92       1.0000    0.77570   0.83571   0.50828   Biso      1.000     C          0.135485  
         C93       1.0000    0.65474   0.76647   0.42990   Biso      1.000     C          0.318102  
         C94       1.0000    0.65509   0.76832   0.59176   Biso      1.000     C          0.316646  
         C95       1.0000    0.69682   0.78952   0.51014   Biso      1.000     C          -0.239519           
         C96       1.0000    0.41470   0.87586   0.27660   Biso      1.000     C          0.062726  
         C97       1.0000    0.41120   0.93659   0.27222   Biso      1.000     C          -0.168037           
         C98       1.0000    0.50335   0.96749   0.25230   Biso      1.000     C          0.109227  
         C99       1.0000    0.81710   0.85603   0.42568   Biso      1.000     C          -0.158147           
         C100      1.0000    0.40930   0.37465   0.25960   Biso      1.000     C          0.080655  
         C101      1.0000    0.18590   0.13947   0.41025   Biso      1.000     C          -0.153162           
         C102      1.0000    0.18290   0.14397   0.57432   Biso      1.000     C          -0.158146           
         C103      1.0000    0.59070   0.62535   0.74040   Biso      1.000     C          0.080654  
         C104      1.0000    0.10570   0.90219   0.08740   Biso      1.000     C          -0.122615           
         C105      1.0000    0.90840   0.95947   0.92050   Biso      1.000     C          0.247821  
         C106      1.0000    0.90860   0.96286   0.08390   Biso      1.000     C          0.247873  
         C107      1.0000    0.97630   0.96698   0.00210   Biso      1.000     C          0.024353  
         C108      1.0000    0.40460   0.93543   0.73660   Biso      1.000     C          -0.169205           
         C109      1.0000    0.18290   0.85603   0.92568   Biso      1.000     C          -0.158154           
         C110      1.0000    0.06350   0.92060   0.00432   Biso      1.000     C          -0.001506           
         C111      1.0000    0.49665   0.96749   0.75230   Biso      1.000     C          0.109225  
         C112      1.0000    0.58530   0.87586   0.77660   Biso      1.000     C          0.062726  
         C113      1.0000    0.30318   0.78952   0.01014   Biso      1.000     C          -0.239518           
         C114      1.0000    0.34491   0.76832   0.09176   Biso      1.000     C          0.316645  
         C115      1.0000    0.22430   0.83571   0.00828   Biso      1.000     C          0.135486  
         C116      1.0000    0.18590   0.86053   0.08975   Biso      1.000     C          -0.153162           
         C117      1.0000    0.89620   0.60248   0.92350   Biso      1.000     C          -0.122841           
         C118      1.0000    0.58880   0.93659   0.77222   Biso      1.000     C          -0.168036           
         C119      1.0000    0.40930   0.87465   0.74040   Biso      1.000     C          0.080655  
         C120      1.0000    0.34526   0.76647   0.92990   Biso      1.000     C          0.318102  
         C121      1.0000    0.81410   0.63947   0.08975   Biso      1.000     C          -0.153162           
         C122      1.0000    0.93650   0.57940   0.00432   Biso      1.000     C          -0.001503           
         C123      1.0000    0.89430   0.59781   0.08740   Biso      1.000     C          -0.122615           
         C124      1.0000    0.09160   0.54053   0.92050   Biso      1.000     C          0.247821  
         C125      1.0000    0.09140   0.53714   0.08390   Biso      1.000     C          0.247873  
         C126      1.0000    0.02370   0.53302   0.00210   Biso      1.000     C          0.024353  
         C127      1.0000    0.59540   0.56457   0.73660   Biso      1.000     C          -0.169204           
         C128      1.0000    0.10380   0.89752   0.92350   Biso      1.000     C          -0.12283  
         C129      1.0000    0.81710   0.64397   0.92568   Biso      1.000     C          -0.158146           
         C130      1.0000    0.41120   0.56341   0.77222   Biso      1.000     C          -0.168038           
         C131      1.0000    0.41470   0.62414   0.77660   Biso      1.000     C          0.062727  
         C132      1.0000    0.69682   0.71048   0.01014   Biso      1.000     C          -0.239518           
         C133      1.0000    0.65509   0.73168   0.09176   Biso      1.000     C          0.316645  
         C134      1.0000    0.65474   0.73353   0.92990   Biso      1.000     C          0.318102  
         C135      1.0000    0.77570   0.66429   0.00828   Biso      1.000     C          0.135484  
         C136      1.0000    0.50335   0.53251   0.75230   Biso      1.000     C          0.109226  
         H1        1.0000    0.08000   0.08110   0.35100   Biso      1.000     H          0.111412  
         H2        1.0000    0.65200   0.04910   0.70400   Biso      1.000     H          0.13259   
         H3        1.0000    0.63800   0.14360   0.70420   Biso      1.000     H          0.10218   
         H4        1.0000    0.21000   0.15480   0.34700   Biso      1.000     H          0.115607  
         H5        1.0000    0.35100   0.14540   0.77600   Biso      1.000     H          0.097694  
         H6        1.0000    0.92000   0.41890   0.35100   Biso      1.000     H          0.111412  
         H7        1.0000    0.92700   0.40400   0.63800   Biso      1.000     H          0.117081  
         H8        1.0000    0.79900   0.34020   0.63200   Biso      1.000     H          0.119955  
         H9        1.0000    0.79000   0.34520   0.34700   Biso      1.000     H          0.115607  
         H10       1.0000    0.20100   0.15980   0.63200   Biso      1.000     H          0.119955  
         H11       1.0000    0.34800   0.45090   0.70400   Biso      1.000     H          0.13259   
         H12       1.0000    0.36200   0.35640   0.70420   Biso      1.000     H          0.10218   
         H13       1.0000    0.34100   0.04820   0.79300   Biso      1.000     H          0.128684  
         H14       1.0000    0.07300   0.09600   0.63800   Biso      1.000     H          0.117081  
         H15       1.0000    0.92700   0.59600   0.86200   Biso      1.000     H          0.117081  
         H16       1.0000    0.64900   0.64540   0.72400   Biso      1.000     H          0.097694  
         H17       1.0000    0.20100   0.84020   0.86800   Biso      1.000     H          0.119956  
         H18       1.0000    0.07300   0.90400   0.86200   Biso      1.000     H          0.11708   
         H19       1.0000    0.64900   0.35460   0.77600   Biso      1.000     H          0.097694  
         H20       1.0000    0.21000   0.84520   0.15300   Biso      1.000     H          0.115607  
         H21       1.0000    0.08000   0.91890   0.14900   Biso      1.000     H          0.111412  
         H22       1.0000    0.65200   0.95090   0.79600   Biso      1.000     H          0.13259   
         H23       1.0000    0.65900   0.54820   0.70700   Biso      1.000     H          0.128684  
         H24       1.0000    0.63800   0.85640   0.79580   Biso      1.000     H          0.10218   
         H25       1.0000    0.34100   0.95180   0.70700   Biso      1.000     H          0.128684  
         H26       1.0000    0.79900   0.65980   0.86800   Biso      1.000     H          0.119955  
         H27       1.0000    0.79000   0.65480   0.15300   Biso      1.000     H          0.115607  
         H28       1.0000    0.92000   0.58110   0.14900   Biso      1.000     H          0.111412  
         H29       1.0000    0.34800   0.54910   0.79600   Biso      1.000     H          0.13259   
         H30       1.0000    0.36200   0.64360   0.79580   Biso      1.000     H          0.10218   
         H31       1.0000    0.35100   0.85460   0.72400   Biso      1.000     H          0.097694  
         H32       1.0000    0.65900   0.45180   0.79300   Biso      1.000     H          0.128684  
         H33       1.0000    0.65900   0.04820   0.29300   Biso      1.000     H          0.128684  
         H34       1.0000    0.79900   0.15980   0.13200   Biso      1.000     H          0.119956  
         H35       1.0000    0.34100   0.54820   0.20700   Biso      1.000     H          0.128684  
         H36       1.0000    0.35100   0.64540   0.22400   Biso      1.000     H          0.097694  
         H37       1.0000    0.63800   0.64360   0.29580   Biso      1.000     H          0.10218   
         H38       1.0000    0.65200   0.54910   0.29600   Biso      1.000     H          0.13259   
         H39       1.0000    0.92700   0.09600   0.13800   Biso      1.000     H          0.11708   
         H40       1.0000    0.21000   0.65480   0.65300   Biso      1.000     H          0.115606  
         H41       1.0000    0.20100   0.65980   0.36800   Biso      1.000     H          0.119956  
         H42       1.0000    0.07300   0.59600   0.36200   Biso      1.000     H          0.11708   
         H43       1.0000    0.65900   0.95180   0.20700   Biso      1.000     H          0.128684  
         H44       1.0000    0.64900   0.85460   0.22400   Biso      1.000     H          0.097694  
         H45       1.0000    0.36200   0.85640   0.29580   Biso      1.000     H          0.10218   
         H46       1.0000    0.34800   0.95090   0.29600   Biso      1.000     H          0.13259   
         H47       1.0000    0.92000   0.91890   0.64900   Biso      1.000     H          0.111412  
         H48       1.0000    0.79000   0.84520   0.65300   Biso      1.000     H          0.115606  
         H49       1.0000    0.08000   0.58110   0.64900   Biso      1.000     H          0.111411  
         H50       1.0000    0.92700   0.90400   0.36200   Biso      1.000     H          0.117081  
         H51       1.0000    0.79900   0.84020   0.36800   Biso      1.000     H          0.119955  
         H52       1.0000    0.79000   0.15480   0.84700   Biso      1.000     H          0.115606  
         H53       1.0000    0.92000   0.08110   0.85100   Biso      1.000     H          0.111411  
         H54       1.0000    0.36200   0.14360   0.20420   Biso      1.000     H          0.10218   
         H55       1.0000    0.64900   0.14540   0.27600   Biso      1.000     H          0.097694  
         H56       1.0000    0.07300   0.40400   0.13800   Biso      1.000     H          0.11708   
         H57       1.0000    0.34800   0.04910   0.20400   Biso      1.000     H          0.13259   
         H58       1.0000    0.21000   0.34520   0.84700   Biso      1.000     H          0.115606  
         H59       1.0000    0.08000   0.41890   0.85100   Biso      1.000     H          0.111411  
         H60       1.0000    0.65200   0.45090   0.20400   Biso      1.000     H          0.13259   
         H61       1.0000    0.63800   0.35640   0.20420   Biso      1.000     H          0.10218   
         H62       1.0000    0.35100   0.35460   0.27600   Biso      1.000     H          0.097694  
         H63       1.0000    0.34100   0.45180   0.29300   Biso      1.000     H          0.128684  
         H64       1.0000    0.20100   0.34020   0.13200   Biso      1.000     H          0.119955  
         N1        1.0000    0.37890   0.25115   0.84089   Biso      1.000     N          -0.437459           
         N2        1.0000    0.14060   0.45243   0.64440   Biso      1.000     N          -0.319492           
         N3        1.0000    0.62030   0.25175   0.13683   Biso      1.000     N          -0.437881           
         N4        1.0000    0.62110   0.24885   0.84089   Biso      1.000     N          -0.437459           
         N5        1.0000    0.13880   0.04160   0.85040   Biso      1.000     N          -0.319521           
         N6        1.0000    0.50331   0.15505   0.23996   Biso      1.000     N          -0.196905           
         N7        1.0000    0.14060   0.04757   0.14440   Biso      1.000     N          -0.319492           
         N8        1.0000    0.37970   0.24825   0.13683   Biso      1.000     N          -0.437881           
         N9        1.0000    0.86120   0.45840   0.85040   Biso      1.000     N          -0.319521           
         N10       1.0000    0.37890   0.74885   0.65911   Biso      1.000     N          -0.437459           
         N11       1.0000    0.85940   0.45243   0.14440   Biso      1.000     N          -0.319492           
         N12       1.0000    0.62030   0.74825   0.36317   Biso      1.000     N          -0.437881           
         N13       1.0000    0.62110   0.75115   0.65911   Biso      1.000     N          -0.437459           
         N14       1.0000    0.13880   0.95840   0.64960   Biso      1.000     N          -0.319521           
         N15       1.0000    0.50331   0.84495   0.26004   Biso      1.000     N          -0.196905           
         N16       1.0000    0.86120   0.54160   0.64960   Biso      1.000     N          -0.319521           
         N17       1.0000    0.37970   0.75175   0.36317   Biso      1.000     N          -0.437881           
         N18       1.0000    0.50331   0.34495   0.73996   Biso      1.000     N          -0.196905           
         N19       1.0000    0.14060   0.95243   0.35560   Biso      1.000     N          -0.319492           
         N20       1.0000    0.49669   0.34495   0.23996   Biso      1.000     N          -0.196905           
         N21       1.0000    0.13880   0.45840   0.35040   Biso      1.000     N          -0.319521           
         N22       1.0000    0.85940   0.54757   0.35560   Biso      1.000     N          -0.319492           
         N23       1.0000    0.62030   0.24825   0.63683   Biso      1.000     N          -0.437881           
         N24       1.0000    0.49669   0.65505   0.26004   Biso      1.000     N          -0.196905           
         N25       1.0000    0.37970   0.74825   0.86317   Biso      1.000     N          -0.437881           
         N26       1.0000    0.37890   0.75115   0.15911   Biso      1.000     N          -0.437459           
         N27       1.0000    0.86120   0.95840   0.14960   Biso      1.000     N          -0.319521           
         N28       1.0000    0.49669   0.84495   0.76004   Biso      1.000     N          -0.196905           
         N29       1.0000    0.85940   0.95243   0.85560   Biso      1.000     N          -0.319492           
         N30       1.0000    0.62110   0.25115   0.34089   Biso      1.000     N          -0.437459           
         N31       1.0000    0.62110   0.74885   0.15911   Biso      1.000     N          -0.437459           
         N32       1.0000    0.62030   0.75175   0.86317   Biso      1.000     N          -0.437881           
         N33       1.0000    0.50331   0.65505   0.76004   Biso      1.000     N          -0.196905           
         N34       1.0000    0.14060   0.54757   0.85560   Biso      1.000     N          -0.319492           
         N35       1.0000    0.37970   0.25175   0.63683   Biso      1.000     N          -0.437881           
         N36       1.0000    0.37890   0.24885   0.34089   Biso      1.000     N          -0.437459           
         N37       1.0000    0.86120   0.04160   0.35040   Biso      1.000     N          -0.319521           
         N38       1.0000    0.49669   0.15505   0.73996   Biso      1.000     N          -0.196905           
         N39       1.0000    0.85940   0.04757   0.64440   Biso      1.000     N          -0.319492           
         N40       1.0000    0.13880   0.54160   0.14960   Biso      1.000     N          -0.319521           
         Zn1       1.0000    0.50000   0.75000   0.26142   Biso      1.000     Zn          0.756392  
         Zn2       1.0000    0.50000   0.25000   0.23858   Biso      1.000     Zn          0.756392  
         Zn3       1.0000    0.50000   0.25000   0.73858   Biso      1.000     Zn          0.756392  
         Zn4       1.0000    0.50000   0.75000   0.76142   Biso      1.000     Zn          0.756392 