
##########################################################################
#               Crystallographic Information Format file
#               Produced by PyCifRW module
#
#  This is a CIF file.  CIF has been adopted by the International
#  Union of Crystallography as the standard for data archiving and
#  transmission.
#
#  For information on this file format, follow the CIF links at
#  http://www.iucr.org
##########################################################################

data_image0

_cell_length_a                          11.419
_cell_length_b                          12.67
_cell_length_c                          14.752
_cell_angle_alpha                       90
_cell_angle_beta                        90
_cell_angle_gamma                       90
_symmetry_space_group_name_H-M          'P 1'
_symmetry_int_tables_number             1
loop_
  _symmetry_equiv_pos_as_xyz
         'x, y, z' 
loop_
  _atom_site_label
  _atom_site_occupancy
  _atom_site_fract_x
  _atom_site_fract_y
  _atom_site_fract_z
  _atom_site_thermal_displace_type
  _atom_site_B_iso_or_equiv
  _atom_site_type_symbol
  _atom_site_charge
         C1        1.0000    0.46180   0.34850   0.91959   Biso      1.000     C          0.317201  
         C2        1.0000    0.80740   0.11400   0.58100   Biso      1.000     C          -0.129493           
         C3        1.0000    0.92060   0.91000   0.58040   Biso      1.000     C          0.253052  
         C4        1.0000    0.72430   0.19260   0.58140   Biso      1.000     C          -0.155595           
         C5        1.0000    0.53820   0.34850   0.58041   Biso      1.000     C          0.317201  
         C6        1.0000    0.87190   0.40800   0.76500   Biso      1.000     C          -0.179011           
         C7        1.0000    0.75080   0.41160   0.76510   Biso      1.000     C          0.0941    
         C8        1.0000    0.80740   0.88600   0.91900   Biso      1.000     C          -0.129493           
         C9        1.0000    0.92060   0.09000   0.91960   Biso      1.000     C          0.253052  
         C10       1.0000    0.72430   0.80740   0.91860   Biso      1.000     C          -0.155595           
         C11       1.0000    0.53820   0.65150   0.91959   Biso      1.000     C          0.317201  
         C12       1.0000    0.87190   0.59200   0.73500   Biso      1.000     C          -0.179011           
         C13       1.0000    0.75080   0.58840   0.73490   Biso      1.000     C          0.0941    
         C14       1.0000    0.19260   0.11400   0.91900   Biso      1.000     C          -0.129493           
         C15       1.0000    0.07940   0.91000   0.91960   Biso      1.000     C          0.253052  
         C16       1.0000    0.27570   0.19260   0.91860   Biso      1.000     C          -0.155595           
         C17       1.0000    0.12810   0.40800   0.73500   Biso      1.000     C          -0.179011           
         C18       1.0000    0.24920   0.41160   0.73490   Biso      1.000     C          0.0941    
         C19       1.0000    0.80740   0.11400   0.41900   Biso      1.000     C          -0.129493           
         C20       1.0000    0.92060   0.91000   0.41960   Biso      1.000     C          0.253052  
         C21       1.0000    0.72430   0.19260   0.41860   Biso      1.000     C          -0.155595           
         C22       1.0000    0.87190   0.40800   0.23500   Biso      1.000     C          -0.179012           
         C23       1.0000    0.24920   0.58840   0.76510   Biso      1.000     C          0.094094  
         C24       1.0000    0.12810   0.59200   0.76500   Biso      1.000     C          -0.179006           
         C25       1.0000    0.46180   0.65150   0.58041   Biso      1.000     C          0.317201  
         C26       1.0000    0.27570   0.80740   0.58140   Biso      1.000     C          -0.155595           
         C27       1.0000    0.93470   0.50000   0.75000   Biso      1.000     C          0.110358  
         C28       1.0000    0.06530   0.50000   0.75000   Biso      1.000     C          0.110356  
         C29       1.0000    0.06530   0.50000   0.25000   Biso      1.000     C          0.110358  
         C30       1.0000    0.93470   0.50000   0.25000   Biso      1.000     C          0.110356  
         C31       1.0000    0.84290   0.06850   0.50000   Biso      1.000     C          0.005977  
         C32       1.0000    0.93200   0.97640   0.50000   Biso      1.000     C          0.011525  
         C33       1.0000    0.67830   0.23160   0.50000   Biso      1.000     C          0.133846  
         C34       1.0000    0.58500   0.30850   0.50000   Biso      1.000     C          -0.237389           
         C35       1.0000    0.15710   0.93150   0.50000   Biso      1.000     C          0.005974  
         C36       1.0000    0.06800   0.02360   0.50000   Biso      1.000     C          0.011525  
         C37       1.0000    0.75080   0.41160   0.23490   Biso      1.000     C          0.0941    
         C38       1.0000    0.32170   0.76840   0.50000   Biso      1.000     C          0.133846  
         C39       1.0000    0.15710   0.06850   0.00000   Biso      1.000     C          0.005975  
         C40       1.0000    0.06800   0.97640   0.00000   Biso      1.000     C          0.011525  
         C41       1.0000    0.32170   0.23160   0.00000   Biso      1.000     C          0.133846  
         C42       1.0000    0.41500   0.30850   0.00000   Biso      1.000     C          -0.237389           
         C43       1.0000    0.84290   0.93150   0.00000   Biso      1.000     C          0.005975  
         C44       1.0000    0.93200   0.02360   0.00000   Biso      1.000     C          0.011525  
         C45       1.0000    0.67830   0.76840   0.00000   Biso      1.000     C          0.133846  
         C46       1.0000    0.58500   0.69150   0.00000   Biso      1.000     C          -0.237389           
         C47       1.0000    0.19260   0.88600   0.58100   Biso      1.000     C          -0.129491           
         C48       1.0000    0.07940   0.09000   0.58040   Biso      1.000     C          0.253052  
         C49       1.0000    0.41500   0.69150   0.50000   Biso      1.000     C          -0.237389           
         C50       1.0000    0.19260   0.88600   0.41900   Biso      1.000     C          -0.129491           
         C51       1.0000    0.53820   0.34850   0.41959   Biso      1.000     C          0.317203  
         C52       1.0000    0.27570   0.80740   0.41860   Biso      1.000     C          -0.155595           
         C53       1.0000    0.07940   0.09000   0.41960   Biso      1.000     C          0.253052  
         C54       1.0000    0.75080   0.58840   0.26510   Biso      1.000     C          0.094094  
         C55       1.0000    0.53820   0.65150   0.08041   Biso      1.000     C          0.317203  
         C56       1.0000    0.72430   0.80740   0.08140   Biso      1.000     C          -0.155595           
         C57       1.0000    0.92060   0.09000   0.08040   Biso      1.000     C          0.253052  
         C58       1.0000    0.80740   0.88600   0.08100   Biso      1.000     C          -0.129491           
         C59       1.0000    0.24920   0.41160   0.26510   Biso      1.000     C          0.094094  
         C60       1.0000    0.12810   0.40800   0.26500   Biso      1.000     C          -0.179007           
         C61       1.0000    0.87190   0.59200   0.26500   Biso      1.000     C          -0.179007           
         C62       1.0000    0.46180   0.34850   0.08041   Biso      1.000     C          0.317203  
         C63       1.0000    0.27570   0.19260   0.08140   Biso      1.000     C          -0.155595           
         C64       1.0000    0.07940   0.91000   0.08040   Biso      1.000     C          0.253052  
         C65       1.0000    0.19260   0.11400   0.08100   Biso      1.000     C          -0.129491           
         C66       1.0000    0.24920   0.58840   0.23490   Biso      1.000     C          0.094094  
         C67       1.0000    0.46180   0.65150   0.41959   Biso      1.000     C          0.317203  
         C68       1.0000    0.12810   0.59200   0.23500   Biso      1.000     C          -0.179007           
         H1        1.0000    0.69800   0.22030   0.36390   Biso      1.000     H          0.118457  
         H2        1.0000    0.91080   0.34450   0.22520   Biso      1.000     H          0.131221  
         H3        1.0000    0.16050   0.90910   0.36450   Biso      1.000     H          0.115533  
         H4        1.0000    0.29030   0.65040   0.22360   Biso      1.000     H          0.097276  
         H5        1.0000    0.30200   0.77970   0.36390   Biso      1.000     H          0.118457  
         H6        1.0000    0.08920   0.65550   0.22520   Biso      1.000     H          0.131221  
         H7        1.0000    0.30200   0.22030   0.13610   Biso      1.000     H          0.118457  
         H8        1.0000    0.29030   0.34960   0.27640   Biso      1.000     H          0.097277  
         H9        1.0000    0.69800   0.77970   0.13610   Biso      1.000     H          0.118457  
         H10       1.0000    0.08920   0.34450   0.27480   Biso      1.000     H          0.131221  
         H11       1.0000    0.83950   0.90910   0.13550   Biso      1.000     H          0.115533  
         H12       1.0000    0.70970   0.65040   0.27640   Biso      1.000     H          0.097277  
         H13       1.0000    0.70970   0.34960   0.22360   Biso      1.000     H          0.097276  
         H14       1.0000    0.91080   0.65550   0.27480   Biso      1.000     H          0.131221  
         H15       1.0000    0.16050   0.09090   0.13550   Biso      1.000     H          0.115533  
         H16       1.0000    0.83950   0.09090   0.36450   Biso      1.000     H          0.115533  
         H17       1.0000    0.91080   0.65550   0.72520   Biso      1.000     H          0.131221  
         H18       1.0000    0.30200   0.22030   0.86390   Biso      1.000     H          0.118457  
         H19       1.0000    0.16050   0.90910   0.63550   Biso      1.000     H          0.115533  
         H20       1.0000    0.08920   0.34450   0.72520   Biso      1.000     H          0.131221  
         H21       1.0000    0.30200   0.77970   0.63610   Biso      1.000     H          0.118457  
         H22       1.0000    0.08920   0.65550   0.77480   Biso      1.000     H          0.131221  
         H23       1.0000    0.83950   0.09090   0.63550   Biso      1.000     H          0.115533  
         H24       1.0000    0.70970   0.34960   0.77640   Biso      1.000     H          0.097276  
         H25       1.0000    0.29030   0.65040   0.77640   Biso      1.000     H          0.097277  
         H26       1.0000    0.91080   0.34450   0.77480   Biso      1.000     H          0.131221  
         H27       1.0000    0.83950   0.90910   0.86450   Biso      1.000     H          0.115533  
         H28       1.0000    0.70970   0.65040   0.72360   Biso      1.000     H          0.097276  
         H29       1.0000    0.69800   0.77970   0.86390   Biso      1.000     H          0.118457  
         H30       1.0000    0.16050   0.09090   0.86450   Biso      1.000     H          0.115533  
         H31       1.0000    0.29030   0.34960   0.72360   Biso      1.000     H          0.097276  
         H32       1.0000    0.69800   0.22030   0.63610   Biso      1.000     H          0.118457  
         N1        1.0000    0.89900   0.13570   0.85520   Biso      1.000     N          -0.319264           
         N2        1.0000    0.50128   0.61970   0.85252   Biso      1.000     N          -0.440281           
         N3        1.0000    0.89900   0.86430   0.64480   Biso      1.000     N          -0.319264           
         N4        1.0000    0.50128   0.38030   0.64748   Biso      1.000     N          -0.440281           
         N5        1.0000    0.31030   0.50000   0.25000   Biso      1.000     N          -0.213136           
         N6        1.0000    0.49872   0.61970   0.64748   Biso      1.000     N          -0.440281           
         N7        1.0000    0.49872   0.38030   0.85252   Biso      1.000     N          -0.440281           
         N8        1.0000    0.68970   0.50000   0.25000   Biso      1.000     N          -0.213137           
         N9        1.0000    0.10100   0.13570   0.64480   Biso      1.000     N          -0.319264           
         N10       1.0000    0.10100   0.86430   0.85520   Biso      1.000     N          -0.319264           
         N11       1.0000    0.68970   0.50000   0.75000   Biso      1.000     N          -0.213137           
         N12       1.0000    0.89900   0.86430   0.35520   Biso      1.000     N          -0.319264           
         N13       1.0000    0.49872   0.61970   0.35252   Biso      1.000     N          -0.440281           
         N14       1.0000    0.10100   0.13570   0.35520   Biso      1.000     N          -0.319264           
         N15       1.0000    0.49872   0.38030   0.14748   Biso      1.000     N          -0.440281           
         N16       1.0000    0.10100   0.86430   0.14480   Biso      1.000     N          -0.319264           
         N17       1.0000    0.50128   0.61970   0.14748   Biso      1.000     N          -0.440281           
         N18       1.0000    0.89900   0.13570   0.14480   Biso      1.000     N          -0.319264           
         N19       1.0000    0.31030   0.50000   0.75000   Biso      1.000     N          -0.213137           
         N20       1.0000    0.50128   0.38030   0.35252   Biso      1.000     N          -0.440281           
         Zn1       1.0000    0.50000   0.50000   0.75000   Biso      1.000     Zn          0.764855  
         Zn2       1.0000    0.50000   0.50000   0.25000   Biso      1.000     Zn          0.764855 