
##########################################################################
#               Crystallographic Information Format file
#               Produced by PyCifRW module
#
#  This is a CIF file.  CIF has been adopted by the International
#  Union of Crystallography as the standard for data archiving and
#  transmission.
#
#  For information on this file format, follow the CIF links at
#  http://www.iucr.org
##########################################################################

data_image0

_cell_length_a                          11.3749
_cell_length_b                          12.7239
_cell_length_c                          14.801
_cell_angle_alpha                       90
_cell_angle_beta                        90
_cell_angle_gamma                       90
_symmetry_space_group_name_H-M          'P 1'
_symmetry_int_tables_number             1
loop_
  _symmetry_equiv_pos_as_xyz
         'x, y, z' 
loop_
  _atom_site_label
  _atom_site_occupancy
  _atom_site_fract_x
  _atom_site_fract_y
  _atom_site_fract_z
  _atom_site_thermal_displace_type
  _atom_site_B_iso_or_equiv
  _atom_site_type_symbol
  _atom_site_charge
         C1        1.0000    0.37160   0.09160   0.76352   Biso      1.000     C          -0.176498           
         C2        1.0000    0.30230   0.39030   0.58040   Biso      1.000     C          -0.12346800000000001          
         C3        1.0000    0.22190   0.31080   0.58070   Biso      1.000     C          -0.15346600000000002          
         C4        1.0000    0.75030   0.08840   0.73727   Biso      1.000     C          0.094704  
         C5        1.0000    0.62840   0.09160   0.73648   Biso      1.000     C          -0.176498           
         C6        1.0000    0.41810   0.58880   0.58060   Biso      1.000     C          0.255806  
         C7        1.0000    0.03920   0.15061   0.58053   Biso      1.000     C          0.318777  
         C8        1.0000    0.30230   0.60970   0.91960   Biso      1.000     C          -0.12346800000000001          
         C9        1.0000    0.22190   0.68920   0.91930   Biso      1.000     C          -0.15346600000000002          
         C10       1.0000    0.75030   0.91160   0.76273   Biso      1.000     C          0.094704  
         C11       1.0000    0.62840   0.90840   0.76352   Biso      1.000     C          -0.176498           
         C12       1.0000    0.41810   0.41120   0.91940   Biso      1.000     C          0.255806  
         C13       1.0000    0.03920   0.84939   0.91947   Biso      1.000     C          0.318777  
         C14       1.0000    0.69770   0.39030   0.91960   Biso      1.000     C          -0.12346800000000001          
         C15       1.0000    0.77810   0.31080   0.91930   Biso      1.000     C          -0.15346600000000002          
         C16       1.0000    0.24970   0.08840   0.76273   Biso      1.000     C          0.094704  
         C17       1.0000    0.58190   0.58880   0.91940   Biso      1.000     C          0.255806  
         C18       1.0000    0.96080   0.15061   0.91947   Biso      1.000     C          0.318777  
         C19       1.0000    0.30230   0.39030   0.41960   Biso      1.000     C          -0.12346800000000001          
         C20       1.0000    0.22190   0.31080   0.41930   Biso      1.000     C          -0.15346600000000002          
         C21       1.0000    0.75030   0.08840   0.26273   Biso      1.000     C          0.094704  
         C22       1.0000    0.41810   0.58880   0.41940   Biso      1.000     C          0.255806  
         C23       1.0000    0.96080   0.84939   0.58053   Biso      1.000     C          0.318777  
         C24       1.0000    0.58190   0.41120   0.58060   Biso      1.000     C          0.255806  
         C25       1.0000    0.37160   0.90840   0.73648   Biso      1.000     C          -0.176498           
         C26       1.0000    0.24970   0.91160   0.73727   Biso      1.000     C          0.094704  
         C27       1.0000    0.08520   0.19030   0.50000   Biso      1.000     C          -0.24129099999999998          
         C28       1.0000    0.34310   0.43220   0.50000   Biso      1.000     C          -0.0014960000000000002        
         C29       1.0000    0.43300   0.52060   0.50000   Biso      1.000     C          0.020130000000000002          
         C30       1.0000    0.17640   0.27010   0.50000   Biso      1.000     C          0.133008  
         C31       1.0000    0.91480   0.80970   0.50000   Biso      1.000     C          -0.24129099999999998          
         C32       1.0000    0.65690   0.56780   0.50000   Biso      1.000     C          -0.0014990000000000001        
         C33       1.0000    0.56700   0.47940   0.50000   Biso      1.000     C          0.020130000000000002          
         C34       1.0000    0.82360   0.72990   0.50000   Biso      1.000     C          0.133008  
         C35       1.0000    0.91480   0.19030   0.00000   Biso      1.000     C          -0.24129099999999998          
         C36       1.0000    0.65690   0.43220   0.00000   Biso      1.000     C          -0.001498           
         C37       1.0000    0.03920   0.15061   0.41947   Biso      1.000     C          0.318777  
         C38       1.0000    0.56700   0.52060   0.00000   Biso      1.000     C          0.020130000000000002          
         C39       1.0000    0.08520   0.80970   0.00000   Biso      1.000     C          -0.24129099999999998          
         C40       1.0000    0.34310   0.56780   0.00000   Biso      1.000     C          -0.001498           
         C41       1.0000    0.43300   0.47940   0.00000   Biso      1.000     C          0.020130000000000002          
         C42       1.0000    0.17640   0.72990   0.00000   Biso      1.000     C          0.133008  
         C43       1.0000    0.56500   0.00000   0.75000   Biso      1.000     C          0.110876  
         C44       1.0000    0.43500   0.00000   0.75000   Biso      1.000     C          0.110874  
         C45       1.0000    0.43500   0.00000   0.25000   Biso      1.000     C          0.110877  
         C46       1.0000    0.56500   0.00000   0.25000   Biso      1.000     C          0.110875  
         C47       1.0000    0.69770   0.60970   0.58040   Biso      1.000     C          -0.123466           
         C48       1.0000    0.77810   0.68920   0.58070   Biso      1.000     C          -0.15346700000000002          
         C49       1.0000    0.82360   0.27010   0.00000   Biso      1.000     C          0.133008  
         C50       1.0000    0.69770   0.60970   0.41960   Biso      1.000     C          -0.123466           
         C51       1.0000    0.62840   0.09160   0.26352   Biso      1.000     C          -0.176498           
         C52       1.0000    0.24970   0.91160   0.26273   Biso      1.000     C          0.094704  
         C53       1.0000    0.77810   0.68920   0.41930   Biso      1.000     C          -0.15346700000000002          
         C54       1.0000    0.03920   0.84939   0.08053   Biso      1.000     C          0.318777  
         C55       1.0000    0.62840   0.90840   0.23648   Biso      1.000     C          -0.176499           
         C56       1.0000    0.75030   0.91160   0.23727   Biso      1.000     C          0.094704  
         C57       1.0000    0.22190   0.68920   0.08070   Biso      1.000     C          -0.15346700000000002          
         C58       1.0000    0.30230   0.60970   0.08040   Biso      1.000     C          -0.12346700000000001          
         C59       1.0000    0.96080   0.15061   0.08053   Biso      1.000     C          0.318777  
         C60       1.0000    0.58190   0.58880   0.08060   Biso      1.000     C          0.255805  
         C61       1.0000    0.41810   0.41120   0.08060   Biso      1.000     C          0.255806  
         C62       1.0000    0.37160   0.09160   0.23648   Biso      1.000     C          -0.176499           
         C63       1.0000    0.24970   0.08840   0.23727   Biso      1.000     C          0.094705  
         C64       1.0000    0.77810   0.31080   0.08070   Biso      1.000     C          -0.15346700000000002          
         C65       1.0000    0.69770   0.39030   0.08040   Biso      1.000     C          -0.12346700000000001          
         C66       1.0000    0.96080   0.84939   0.41947   Biso      1.000     C          0.318777  
         C67       1.0000    0.37160   0.90840   0.26352   Biso      1.000     C          -0.176499           
         C68       1.0000    0.58190   0.41120   0.41940   Biso      1.000     C          0.255805  
         H1        1.0000    0.79240   0.15200   0.27170   Biso      1.000     H          0.0961    
         H2        1.0000    0.58870   0.15640   0.27320   Biso      1.000     H          0.129924  
         H3        1.0000    0.66930   0.58260   0.36390   Biso      1.000     H          0.112822  
         H4        1.0000    0.80390   0.71750   0.36330   Biso      1.000     H          0.115496  
         H5        1.0000    0.20760   0.84800   0.27170   Biso      1.000     H          0.0961    
         H6        1.0000    0.41130   0.84360   0.27320   Biso      1.000     H          0.129924  
         H7        1.0000    0.20760   0.15200   0.22830   Biso      1.000     H          0.0961    
         H8        1.0000    0.80390   0.28250   0.13670   Biso      1.000     H          0.115496  
         H9        1.0000    0.79240   0.84800   0.22830   Biso      1.000     H          0.0961    
         H10       1.0000    0.41130   0.15640   0.22680   Biso      1.000     H          0.129924  
         H11       1.0000    0.33070   0.58260   0.13610   Biso      1.000     H          0.112822  
         H12       1.0000    0.19610   0.71750   0.13670   Biso      1.000     H          0.115496  
         H13       1.0000    0.19610   0.28250   0.36330   Biso      1.000     H          0.115496  
         H14       1.0000    0.58870   0.84360   0.22680   Biso      1.000     H          0.129924  
         H15       1.0000    0.66930   0.41740   0.13610   Biso      1.000     H          0.112822  
         H16       1.0000    0.33070   0.41740   0.36390   Biso      1.000     H          0.112822  
         H17       1.0000    0.58870   0.84360   0.77320   Biso      1.000     H          0.129924  
         H18       1.0000    0.20760   0.15200   0.77170   Biso      1.000     H          0.0961    
         H19       1.0000    0.66930   0.58260   0.63610   Biso      1.000     H          0.112822  
         H20       1.0000    0.41130   0.15640   0.77320   Biso      1.000     H          0.129924  
         H21       1.0000    0.20760   0.84800   0.72830   Biso      1.000     H          0.0961    
         H22       1.0000    0.41130   0.84360   0.72680   Biso      1.000     H          0.129924  
         H23       1.0000    0.33070   0.41740   0.63610   Biso      1.000     H          0.112822  
         H24       1.0000    0.19610   0.28250   0.63670   Biso      1.000     H          0.115496  
         H25       1.0000    0.80390   0.71750   0.63670   Biso      1.000     H          0.115496  
         H26       1.0000    0.58870   0.15640   0.72680   Biso      1.000     H          0.129924  
         H27       1.0000    0.33070   0.58260   0.86390   Biso      1.000     H          0.112822  
         H28       1.0000    0.19610   0.71750   0.86330   Biso      1.000     H          0.115496  
         H29       1.0000    0.79240   0.84800   0.77170   Biso      1.000     H          0.096101  
         H30       1.0000    0.66930   0.41740   0.86390   Biso      1.000     H          0.112822  
         H31       1.0000    0.80390   0.28250   0.86330   Biso      1.000     H          0.115496  
         H32       1.0000    0.79240   0.15200   0.72830   Biso      1.000     H          0.096101  
         N1        1.0000    0.40400   0.36170   0.85720   Biso      1.000     N          -0.326074           
         N2        1.0000    0.00190   0.88100   0.85294   Biso      1.000     N          -0.440008           
         N3        1.0000    0.40400   0.63830   0.64280   Biso      1.000     N          -0.326074           
         N4        1.0000    0.00190   0.11900   0.64706   Biso      1.000     N          -0.440008           
         N5        1.0000    0.18860   0.00000   0.25000   Biso      1.000     N          -0.21008000000000002          
         N6        1.0000    0.99810   0.88100   0.64706   Biso      1.000     N          -0.440008           
         N7        1.0000    0.99810   0.11900   0.85294   Biso      1.000     N          -0.440008           
         N8        1.0000    0.81140   0.00000   0.25000   Biso      1.000     N          -0.21008000000000002          
         N9        1.0000    0.59600   0.36170   0.64280   Biso      1.000     N          -0.326074           
         N10       1.0000    0.59600   0.63830   0.85720   Biso      1.000     N          -0.326074           
         N11       1.0000    0.81140   0.00000   0.75000   Biso      1.000     N          -0.21008000000000002          
         N12       1.0000    0.40400   0.63830   0.35720   Biso      1.000     N          -0.326074           
         N13       1.0000    0.99810   0.88100   0.35294   Biso      1.000     N          -0.440008           
         N14       1.0000    0.59600   0.36170   0.35720   Biso      1.000     N          -0.326074           
         N15       1.0000    0.99810   0.11900   0.14706   Biso      1.000     N          -0.440008           
         N16       1.0000    0.59600   0.63830   0.14280   Biso      1.000     N          -0.326073           
         N17       1.0000    0.00190   0.88100   0.14706   Biso      1.000     N          -0.440008           
         N18       1.0000    0.40400   0.36170   0.14280   Biso      1.000     N          -0.326074           
         N19       1.0000    0.18860   0.00000   0.75000   Biso      1.000     N          -0.21008000000000002          
         N20       1.0000    0.00190   0.11900   0.35294   Biso      1.000     N          -0.440008           
         Zn1       1.0000    0.00000   0.00000   0.75000   Biso      1.000     Zn          0.761249  
         Zn2       1.0000    0.00000   0.00000   0.25000   Biso      1.000     Zn          0.761249 