
##########################################################################
#               Crystallographic Information Format file
#               Produced by PyCifRW module
#
#  This is a CIF file.  CIF has been adopted by the International
#  Union of Crystallography as the standard for data archiving and
#  transmission.
#
#  For information on this file format, follow the CIF links at
#  http://www.iucr.org
##########################################################################

data_image0

_cell_length_a                          11.4341
_cell_length_b                          12.5791
_cell_length_c                          14.7759
_cell_angle_alpha                       90
_cell_angle_beta                        90
_cell_angle_gamma                       90
_symmetry_space_group_name_H-M          'P 1'
_symmetry_int_tables_number             1
loop_
  _symmetry_equiv_pos_as_xyz
         'x, y, z' 
loop_
  _atom_site_label
  _atom_site_occupancy
  _atom_site_fract_x
  _atom_site_fract_y
  _atom_site_fract_z
  _atom_site_thermal_displace_type
  _atom_site_B_iso_or_equiv
  _atom_site_type_symbol
  _atom_site_charge
         C1        1.0000    0.46158   0.65101   0.91965   Biso      1.000     C          0.316989  
         C2        1.0000    0.92140   0.09070   0.58100   Biso      1.000     C          0.252307  
         C3        1.0000    0.80140   0.89340   0.58143   Biso      1.000     C          -0.131498           
         C4        1.0000    0.72070   0.81110   0.58133   Biso      1.000     C          -0.153123           
         C5        1.0000    0.53842   0.65101   0.58035   Biso      1.000     C          0.316989  
         C6        1.0000    0.75022   0.58832   0.76799   Biso      1.000     C          0.091565  
         C7        1.0000    0.87186   0.59222   0.76813   Biso      1.000     C          -0.17839  
         C8        1.0000    0.92140   0.90930   0.91900   Biso      1.000     C          0.252307  
         C9        1.0000    0.80140   0.10660   0.91857   Biso      1.000     C          -0.131498           
         C10       1.0000    0.72070   0.18890   0.91867   Biso      1.000     C          -0.153123           
         C11       1.0000    0.53842   0.34899   0.91965   Biso      1.000     C          0.31699   
         C12       1.0000    0.75022   0.41168   0.73201   Biso      1.000     C          0.091565  
         C13       1.0000    0.87186   0.40778   0.73187   Biso      1.000     C          -0.17839  
         C14       1.0000    0.07860   0.09070   0.91900   Biso      1.000     C          0.252307  
         C15       1.0000    0.19860   0.89340   0.91857   Biso      1.000     C          -0.131498           
         C16       1.0000    0.27930   0.81110   0.91867   Biso      1.000     C          -0.153123           
         C17       1.0000    0.24978   0.58832   0.73201   Biso      1.000     C          0.091565  
         C18       1.0000    0.12814   0.59222   0.73187   Biso      1.000     C          -0.178389           
         C19       1.0000    0.92140   0.09070   0.41900   Biso      1.000     C          0.252307  
         C20       1.0000    0.80140   0.89340   0.41857   Biso      1.000     C          -0.131498           
         C21       1.0000    0.72070   0.81110   0.41867   Biso      1.000     C          -0.153123           
         C22       1.0000    0.75022   0.58832   0.23201   Biso      1.000     C          0.091565  
         C23       1.0000    0.12814   0.40778   0.76813   Biso      1.000     C          -0.178392           
         C24       1.0000    0.24978   0.41168   0.76799   Biso      1.000     C          0.091567  
         C25       1.0000    0.46158   0.34899   0.58035   Biso      1.000     C          0.31699   
         C26       1.0000    0.27930   0.18890   0.58133   Biso      1.000     C          -0.153123           
         C27       1.0000    0.93400   0.02360   0.50000   Biso      1.000     C          0.018598  
         C28       1.0000    0.84170   0.93520   0.50000   Biso      1.000     C          0.002758  
         C29       1.0000    0.67640   0.77000   0.50000   Biso      1.000     C          0.133344  
         C30       1.0000    0.58520   0.68940   0.50000   Biso      1.000     C          -0.23796  
         C31       1.0000    0.06600   0.97640   0.50000   Biso      1.000     C          0.018598  
         C32       1.0000    0.15830   0.06480   0.50000   Biso      1.000     C          0.002757  
         C33       1.0000    0.32360   0.23000   0.50000   Biso      1.000     C          0.133344  
         C34       1.0000    0.41480   0.31060   0.50000   Biso      1.000     C          -0.23796  
         C35       1.0000    0.06600   0.02360   0.00000   Biso      1.000     C          0.018598  
         C36       1.0000    0.15830   0.93520   0.00000   Biso      1.000     C          0.002758  
         C37       1.0000    0.87186   0.59222   0.23187   Biso      1.000     C          -0.17839  
         C38       1.0000    0.32360   0.77000   0.00000   Biso      1.000     C          0.133344  
         C39       1.0000    0.93400   0.97640   0.00000   Biso      1.000     C          0.018598  
         C40       1.0000    0.84170   0.06480   0.00000   Biso      1.000     C          0.002758  
         C41       1.0000    0.67640   0.23000   0.00000   Biso      1.000     C          0.133344  
         C42       1.0000    0.58520   0.31060   0.00000   Biso      1.000     C          -0.23796  
         C43       1.0000    0.93510   0.50000   0.75000   Biso      1.000     C          0.10964   
         C44       1.0000    0.06490   0.50000   0.75000   Biso      1.000     C          0.109639  
         C45       1.0000    0.06490   0.50000   0.25000   Biso      1.000     C          0.109644  
         C46       1.0000    0.93510   0.50000   0.25000   Biso      1.000     C          0.10964   
         C47       1.0000    0.07860   0.90930   0.58100   Biso      1.000     C          0.252307  
         C48       1.0000    0.19860   0.10660   0.58143   Biso      1.000     C          -0.131498           
         C49       1.0000    0.41480   0.68940   0.00000   Biso      1.000     C          -0.23796  
         C50       1.0000    0.07860   0.90930   0.41900   Biso      1.000     C          0.252307  
         C51       1.0000    0.53842   0.65101   0.41965   Biso      1.000     C          0.316992  
         C52       1.0000    0.27930   0.18890   0.41867   Biso      1.000     C          -0.153123           
         C53       1.0000    0.19860   0.10660   0.41857   Biso      1.000     C          -0.131498           
         C54       1.0000    0.87186   0.40778   0.26813   Biso      1.000     C          -0.178394           
         C55       1.0000    0.53842   0.34899   0.08035   Biso      1.000     C          0.316991  
         C56       1.0000    0.72070   0.18890   0.08133   Biso      1.000     C          -0.153123           
         C57       1.0000    0.80140   0.10660   0.08143   Biso      1.000     C          -0.131498           
         C58       1.0000    0.92140   0.90930   0.08100   Biso      1.000     C          0.252307  
         C59       1.0000    0.12814   0.59222   0.26813   Biso      1.000     C          -0.178394           
         C60       1.0000    0.24978   0.58832   0.26799   Biso      1.000     C          0.091567  
         C61       1.0000    0.75022   0.41168   0.26799   Biso      1.000     C          0.091567  
         C62       1.0000    0.46158   0.65101   0.08035   Biso      1.000     C          0.316992  
         C63       1.0000    0.27930   0.81110   0.08133   Biso      1.000     C          -0.153123           
         C64       1.0000    0.19860   0.89340   0.08143   Biso      1.000     C          -0.131498           
         C65       1.0000    0.07860   0.09070   0.08100   Biso      1.000     C          0.252307  
         C66       1.0000    0.12814   0.40778   0.23187   Biso      1.000     C          -0.178395           
         C67       1.0000    0.46158   0.34899   0.41965   Biso      1.000     C          0.316992  
         C68       1.0000    0.24978   0.41168   0.23201   Biso      1.000     C          0.091567  
         H1        1.0000    0.82860   0.92090   0.36410   Biso      1.000     H          0.117172  
         H2        1.0000    0.69670   0.78210   0.36390   Biso      1.000     H          0.118103  
         H3        1.0000    0.29070   0.34960   0.21920   Biso      1.000     H          0.096861  
         H4        1.0000    0.08940   0.34440   0.21960   Biso      1.000     H          0.131455  
         H5        1.0000    0.17140   0.07910   0.36410   Biso      1.000     H          0.117172  
         H6        1.0000    0.30330   0.21790   0.36390   Biso      1.000     H          0.118103  
         H7        1.0000    0.17140   0.92090   0.13590   Biso      1.000     H          0.117172  
         H8        1.0000    0.08940   0.65560   0.28040   Biso      1.000     H          0.131455  
         H9        1.0000    0.82860   0.07910   0.13590   Biso      1.000     H          0.117172  
         H10       1.0000    0.30330   0.78210   0.13610   Biso      1.000     H          0.118103  
         H11       1.0000    0.70930   0.34960   0.28080   Biso      1.000     H          0.096861  
         H12       1.0000    0.91060   0.34440   0.28040   Biso      1.000     H          0.131455  
         H13       1.0000    0.91060   0.65560   0.21960   Biso      1.000     H          0.131455  
         H14       1.0000    0.69670   0.21790   0.13610   Biso      1.000     H          0.118103  
         H15       1.0000    0.29070   0.65040   0.28080   Biso      1.000     H          0.096861  
         H16       1.0000    0.70930   0.65040   0.21920   Biso      1.000     H          0.096861  
         H17       1.0000    0.69670   0.21790   0.86390   Biso      1.000     H          0.118103  
         H18       1.0000    0.17140   0.92090   0.86410   Biso      1.000     H          0.117172  
         H19       1.0000    0.29070   0.34960   0.78080   Biso      1.000     H          0.096861  
         H20       1.0000    0.30330   0.78210   0.86390   Biso      1.000     H          0.118103  
         H21       1.0000    0.17140   0.07910   0.63590   Biso      1.000     H          0.117172  
         H22       1.0000    0.30330   0.21790   0.63610   Biso      1.000     H          0.118103  
         H23       1.0000    0.70930   0.65040   0.78080   Biso      1.000     H          0.096861  
         H24       1.0000    0.91060   0.65560   0.78040   Biso      1.000     H          0.131455  
         H25       1.0000    0.08940   0.34440   0.78040   Biso      1.000     H          0.131455  
         H26       1.0000    0.69670   0.78210   0.63610   Biso      1.000     H          0.118103  
         H27       1.0000    0.70930   0.34960   0.71920   Biso      1.000     H          0.096861  
         H28       1.0000    0.91060   0.34440   0.71960   Biso      1.000     H          0.131455  
         H29       1.0000    0.82860   0.07910   0.86410   Biso      1.000     H          0.117172  
         H30       1.0000    0.29070   0.65040   0.71920   Biso      1.000     H          0.096861  
         H31       1.0000    0.08940   0.65560   0.71960   Biso      1.000     H          0.131455  
         H32       1.0000    0.82860   0.92090   0.63590   Biso      1.000     H          0.117172  
         N1        1.0000    0.50101   0.37981   0.85235   Biso      1.000     N          -0.441029           
         N2        1.0000    0.91080   0.85920   0.85530   Biso      1.000     N          -0.319329           
         N3        1.0000    0.50101   0.62019   0.64765   Biso      1.000     N          -0.441029           
         N4        1.0000    0.91080   0.14080   0.64470   Biso      1.000     N          -0.319329           
         N5        1.0000    0.31030   0.50000   0.25000   Biso      1.000     N          -0.210623           
         N6        1.0000    0.08920   0.85920   0.64470   Biso      1.000     N          -0.319329           
         N7        1.0000    0.08920   0.14080   0.85530   Biso      1.000     N          -0.319329           
         N8        1.0000    0.68970   0.50000   0.25000   Biso      1.000     N          -0.210622           
         N9        1.0000    0.49899   0.37981   0.64765   Biso      1.000     N          -0.441029           
         N10       1.0000    0.49899   0.62019   0.85235   Biso      1.000     N          -0.441029           
         N11       1.0000    0.68970   0.50000   0.75000   Biso      1.000     N          -0.210622           
         N12       1.0000    0.50101   0.62019   0.35235   Biso      1.000     N          -0.44103  
         N13       1.0000    0.08920   0.85920   0.35530   Biso      1.000     N          -0.319329           
         N14       1.0000    0.49899   0.37981   0.35235   Biso      1.000     N          -0.44103  
         N15       1.0000    0.08920   0.14080   0.14470   Biso      1.000     N          -0.319329           
         N16       1.0000    0.49899   0.62019   0.14765   Biso      1.000     N          -0.44103  
         N17       1.0000    0.91080   0.85920   0.14470   Biso      1.000     N          -0.319329           
         N18       1.0000    0.50101   0.37981   0.14765   Biso      1.000     N          -0.44103  
         N19       1.0000    0.31030   0.50000   0.75000   Biso      1.000     N          -0.210622           
         N20       1.0000    0.91080   0.14080   0.35530   Biso      1.000     N          -0.319329           
         Zn1       1.0000    0.50000   0.50000   0.75000   Biso      1.000     Zn          0.764147  
         Zn2       1.0000    0.50000   0.50000   0.25000   Biso      1.000     Zn          0.764148 