
##########################################################################
#               Crystallographic Information Format file
#               Produced by PyCifRW module
#
#  This is a CIF file.  CIF has been adopted by the International
#  Union of Crystallography as the standard for data archiving and
#  transmission.
#
#  For information on this file format, follow the CIF links at
#  http://www.iucr.org
##########################################################################

data_image0

_cell_length_a                          7.7022
_cell_length_b                          9.9152
_cell_length_c                          15.8202
_cell_angle_alpha                       90
_cell_angle_beta                        110.305
_cell_angle_gamma                       90
_symmetry_space_group_name_H-M          'P 1'
_symmetry_int_tables_number             1
loop_
  _symmetry_equiv_pos_as_xyz
         'x, y, z' 
loop_
  _atom_site_label
  _atom_site_occupancy
  _atom_site_fract_x
  _atom_site_fract_y
  _atom_site_fract_z
  _atom_site_thermal_displace_type
  _atom_site_B_iso_or_equiv
  _atom_site_type_symbol
  _atom_site_charge
         C1        1.0000    0.91790   0.46820   0.96130   Biso      1.000     C          0.512     
         C2        1.0000    0.18260   0.88570   0.01190   Biso      1.000     C          0.078019  
         C3        1.0000    0.35540   0.06730   0.08220   Biso      1.000     C          0.057728  
         C4        1.0000    0.21760   0.06940   0.92180   Biso      1.000     C          -0.071605           
         C5        1.0000    0.32660   0.13150   0.00120   Biso      1.000     C          -0.071917           
         C6        1.0000    0.40950   0.26860   0.99840   Biso      1.000     C          0.705377  
         C7        1.0000    0.59050   0.73140   0.00160   Biso      1.000     C          0.705377  
         C8        1.0000    0.03630   0.63680   0.34490   Biso      1.000     C          0.67715   
         C9        1.0000    0.14710   0.55900   0.42700   Biso      1.000     C          -0.08677  
         C10       1.0000    0.18260   0.61430   0.51190   Biso      1.000     C          0.07802   
         C11       1.0000    0.14710   0.94100   0.92700   Biso      1.000     C          -0.086769           
         C12       1.0000    0.35540   0.43270   0.58220   Biso      1.000     C          0.057728  
         C13       1.0000    0.32660   0.36850   0.50120   Biso      1.000     C          -0.071917           
         C14       1.0000    0.40950   0.23140   0.49840   Biso      1.000     C          0.705377  
         C15       1.0000    0.91790   0.03180   0.46130   Biso      1.000     C          0.512     
         C16       1.0000    0.96370   0.13680   0.15510   Biso      1.000     C          0.67715   
         C17       1.0000    0.85290   0.05900   0.07300   Biso      1.000     C          -0.08677  
         C18       1.0000    0.81740   0.11430   0.98810   Biso      1.000     C          0.07802   
         C19       1.0000    0.64460   0.93270   0.91780   Biso      1.000     C          0.057728  
         C20       1.0000    0.78240   0.93060   0.07820   Biso      1.000     C          -0.071605           
         C21       1.0000    0.67340   0.86850   0.99880   Biso      1.000     C          -0.071917           
         C22       1.0000    0.21760   0.43060   0.42180   Biso      1.000     C          -0.071604           
         C23       1.0000    0.03630   0.86320   0.84490   Biso      1.000     C          0.67715   
         C24       1.0000    0.08210   0.53180   0.03870   Biso      1.000     C          0.512     
         C25       1.0000    0.67340   0.63150   0.49880   Biso      1.000     C          -0.071921           
         C26       1.0000    0.78240   0.56940   0.57820   Biso      1.000     C          -0.071604           
         C27       1.0000    0.81740   0.38570   0.48810   Biso      1.000     C          0.078019  
         C28       1.0000    0.85290   0.44100   0.57300   Biso      1.000     C          -0.086769           
         C29       1.0000    0.96370   0.36320   0.65510   Biso      1.000     C          0.67715   
         C30       1.0000    0.59050   0.76860   0.50160   Biso      1.000     C          0.705377  
         C31       1.0000    0.08210   0.96820   0.53870   Biso      1.000     C          0.512     
         C32       1.0000    0.64460   0.56730   0.41780   Biso      1.000     C          0.057731  
         H1        1.0000    0.42910   0.10970   0.13480   Biso      1.000     H          0.101789  
         H2        1.0000    0.80790   0.88770   0.13350   Biso      1.000     H          0.130399  
         H3        1.0000    0.86620   0.30100   0.48460   Biso      1.000     H          0.100183  
         H4        1.0000    0.42910   0.39030   0.63480   Biso      1.000     H          0.101789  
         H5        1.0000    0.19210   0.38770   0.36650   Biso      1.000     H          0.130399  
         H6        1.0000    0.86620   0.19900   0.98460   Biso      1.000     H          0.100183  
         H7        1.0000    0.57090   0.89030   0.86520   Biso      1.000     H          0.10179   
         H8        1.0000    0.80790   0.61230   0.63350   Biso      1.000     H          0.130399  
         H9        1.0000    0.57090   0.60970   0.36520   Biso      1.000     H          0.101789  
         H10       1.0000    0.19210   0.11230   0.86650   Biso      1.000     H          0.130399  
         H11       1.0000    0.13380   0.80100   0.01540   Biso      1.000     H          0.100183  
         H12       1.0000    0.13380   0.69900   0.51540   Biso      1.000     H          0.100183  
         N1        1.0000    0.28180   0.94590   0.08880   Biso      1.000     N          -0.285312           
         N2        1.0000    0.71820   0.05410   0.91120   Biso      1.000     N          -0.285312           
         N3        1.0000    0.28180   0.55410   0.58880   Biso      1.000     N          -0.285312           
         N4        1.0000    0.71820   0.44590   0.41120   Biso      1.000     N          -0.285312           
         Nd1       1.0000    0.78478   0.45609   0.13998   Biso      1.000     Nd          2.131969  
         Nd2       1.0000    0.78478   0.04391   0.63998   Biso      1.000     Nd          2.131969  
         Nd3       1.0000    0.21522   0.95609   0.36002   Biso      1.000     Nd          2.131969  
         Nd4       1.0000    0.21522   0.54391   0.86002   Biso      1.000     Nd          2.131969  
         O1        1.0000    0.54160   0.19550   0.56730   Biso      1.000     O          -0.712147           
         O2        1.0000    0.06040   0.94860   0.61264   Biso      1.000     O          -0.59199  
         O3        1.0000    0.54160   0.30450   0.06730   Biso      1.000     O          -0.712147           
         O4        1.0000    0.22320   0.93910   0.52051   Biso      1.000     O          -0.61059  
         O5        1.0000    0.01900   0.73720   0.85462   Biso      1.000     O          -0.688057           
         O6        1.0000    0.98100   0.23720   0.64538   Biso      1.000     O          -0.688057           
         O7        1.0000    0.77680   0.43910   0.97949   Biso      1.000     O          -0.61059  
         O8        1.0000    0.03230   0.42320   0.72825   Biso      1.000     O          -0.694036           
         O9        1.0000    0.65730   0.83750   0.57152   Biso      1.000     O          -0.682191           
         O10       1.0000    0.45840   0.80450   0.43270   Biso      1.000     O          -0.712147           
         O11       1.0000    0.93960   0.44860   0.88736   Biso      1.000     O          -0.59199  
         O12       1.0000    0.65730   0.66250   0.07152   Biso      1.000     O          -0.682191           
         O13       1.0000    0.96770   0.92320   0.77175   Biso      1.000     O          -0.694036           
         O14       1.0000    0.03230   0.07680   0.22825   Biso      1.000     O          -0.694036           
         O15       1.0000    0.98100   0.26280   0.14538   Biso      1.000     O          -0.688057           
         O16       1.0000    0.22320   0.56090   0.02051   Biso      1.000     O          -0.61059  
         O17       1.0000    0.06040   0.55140   0.11264   Biso      1.000     O          -0.59199  
         O18       1.0000    0.93960   0.05140   0.38736   Biso      1.000     O          -0.59199  
         O19       1.0000    0.77680   0.06090   0.47949   Biso      1.000     O          -0.61059  
         O20       1.0000    0.01900   0.76280   0.35462   Biso      1.000     O          -0.688058           
         O21       1.0000    0.96770   0.57680   0.27175   Biso      1.000     O          -0.694036           
         O22       1.0000    0.34270   0.16250   0.42848   Biso      1.000     O          -0.682191           
         O23       1.0000    0.45840   0.69550   0.93270   Biso      1.000     O          -0.712147           
         O24       1.0000    0.34270   0.33750   0.92848   Biso      1.000     O          -0.682191 