
##########################################################################
#               Crystallographic Information Format file
#               Produced by PyCifRW module
#
#  This is a CIF file.  CIF has been adopted by the International
#  Union of Crystallography as the standard for data archiving and
#  transmission.
#
#  For information on this file format, follow the CIF links at
#  http://www.iucr.org
##########################################################################

data_image0

_cell_length_a                          7.7008
_cell_length_b                          9.9155
_cell_length_c                          14.9899
_cell_angle_alpha                       90
_cell_angle_beta                        98.466
_cell_angle_gamma                       90
_symmetry_space_group_name_H-M          'P 1'
_symmetry_int_tables_number             1
loop_
  _symmetry_equiv_pos_as_xyz
         'x, y, z' 
loop_
  _atom_site_label
  _atom_site_occupancy
  _atom_site_fract_x
  _atom_site_fract_y
  _atom_site_fract_z
  _atom_site_thermal_displace_type
  _atom_site_B_iso_or_equiv
  _atom_site_type_symbol
  _atom_site_charge
         C1        1.0000    0.22630   0.93280   0.58263   Biso      1.000     C          0.056968  
         C2        1.0000    0.77970   0.44150   0.92694   Biso      1.000     C          -0.083167           
         C3        1.0000    0.70420   0.56870   0.92156   Biso      1.000     C          -0.073181           
         C4        1.0000    0.67460   0.63200   0.00089   Biso      1.000     C          -0.073119           
         C5        1.0000    0.58880   0.76790   0.99903   Biso      1.000     C          0.705823  
         C6        1.0000    0.72630   0.56720   0.08263   Biso      1.000     C          0.056968  
         C7        1.0000    0.83000   0.38600   0.01208   Biso      1.000     C          0.077085  
         C8        1.0000    0.04270   0.96820   0.96133   Biso      1.000     C          0.516128  
         C9        1.0000    0.30840   0.13700   0.34512   Biso      1.000     C          0.675814  
         C10       1.0000    0.27970   0.05850   0.42694   Biso      1.000     C          -0.083167           
         C11       1.0000    0.80840   0.36300   0.84512   Biso      1.000     C          0.675814  
         C12       1.0000    0.20420   0.93130   0.42156   Biso      1.000     C          -0.073181           
         C13       1.0000    0.08880   0.73210   0.49903   Biso      1.000     C          0.705823  
         C14       1.0000    0.33000   0.11400   0.51208   Biso      1.000     C          0.077085  
         C15       1.0000    0.54270   0.53180   0.46133   Biso      1.000     C          0.516128  
         C16       1.0000    0.19160   0.63700   0.15488   Biso      1.000     C          0.675814  
         C17       1.0000    0.22030   0.55850   0.07306   Biso      1.000     C          -0.083167           
         C18       1.0000    0.29580   0.43130   0.07844   Biso      1.000     C          -0.073181           
         C19       1.0000    0.32540   0.36800   0.99911   Biso      1.000     C          -0.073119           
         C20       1.0000    0.41120   0.23210   0.00097   Biso      1.000     C          0.705823  
         C21       1.0000    0.27370   0.43280   0.91737   Biso      1.000     C          0.056968  
         C22       1.0000    0.17460   0.86800   0.50089   Biso      1.000     C          -0.073119           
         C23       1.0000    0.17000   0.61400   0.98792   Biso      1.000     C          0.077085  
         C24       1.0000    0.45730   0.46820   0.53867   Biso      1.000     C          0.516128  
         C25       1.0000    0.77370   0.06720   0.41737   Biso      1.000     C          0.056968  
         C26       1.0000    0.67000   0.88600   0.48792   Biso      1.000     C          0.077083  
         C27       1.0000    0.69160   0.86300   0.65488   Biso      1.000     C          0.675814  
         C28       1.0000    0.72030   0.94150   0.57306   Biso      1.000     C          -0.083165           
         C29       1.0000    0.95730   0.03180   0.03867   Biso      1.000     C          0.516128  
         C30       1.0000    0.82540   0.13200   0.49911   Biso      1.000     C          -0.073119           
         C31       1.0000    0.79580   0.06870   0.57844   Biso      1.000     C          -0.073181           
         C32       1.0000    0.91120   0.26790   0.50097   Biso      1.000     C          0.705823  
         H1        1.0000    0.82610   0.11090   0.63390   Biso      1.000     H          0.131277  
         H2        1.0000    0.79600   0.10900   0.36470   Biso      1.000     H          0.102591  
         H3        1.0000    0.61730   0.80140   0.48440   Biso      1.000     H          0.10068   
         H4        1.0000    0.67390   0.61090   0.86610   Biso      1.000     H          0.131277  
         H5        1.0000    0.70400   0.60900   0.13530   Biso      1.000     H          0.102591  
         H6        1.0000    0.20400   0.89100   0.63530   Biso      1.000     H          0.102591  
         H7        1.0000    0.38270   0.19860   0.51560   Biso      1.000     H          0.10068   
         H8        1.0000    0.32610   0.38910   0.13390   Biso      1.000     H          0.131277  
         H9        1.0000    0.29600   0.39100   0.86470   Biso      1.000     H          0.102591  
         H10       1.0000    0.11730   0.69860   0.98440   Biso      1.000     H          0.10068   
         H11       1.0000    0.88270   0.30140   0.01560   Biso      1.000     H          0.10068   
         H12       1.0000    0.17390   0.88910   0.36610   Biso      1.000     H          0.131277  
         N1        1.0000    0.69260   0.94650   0.41098   Biso      1.000     N          -0.28524  
         N2        1.0000    0.80740   0.44650   0.08902   Biso      1.000     N          -0.28524  
         N3        1.0000    0.30740   0.05350   0.58902   Biso      1.000     N          -0.285241           
         N4        1.0000    0.19260   0.55350   0.91098   Biso      1.000     N          -0.285241           
         Nd1       1.0000    0.85508   0.54385   0.64001   Biso      1.000     Nd          2.131984  
         Nd2       1.0000    0.35508   0.95615   0.14001   Biso      1.000     Nd          2.131984  
         Nd3       1.0000    0.14492   0.45615   0.35999   Biso      1.000     Nd          2.131984  
         Nd4       1.0000    0.64492   0.04385   0.85999   Biso      1.000     Nd          2.131984  
         O1        1.0000    0.47450   0.19620   0.93276   Biso      1.000     O          -0.706083           
         O2        1.0000    0.41410   0.16320   0.07129   Biso      1.000     O          -0.68859  
         O3        1.0000    0.19610   0.57630   0.22829   Biso      1.000     O          -0.699291           
         O4        1.0000    0.16430   0.76259   0.14542   Biso      1.000     O          -0.68342  
         O5        1.0000    0.70320   0.56070   0.47951   Biso      1.000     O          -0.618582           
         O6        1.0000    0.44760   0.55070   0.38773   Biso      1.000     O          -0.587676           
         O7        1.0000    0.02550   0.69620   0.56724   Biso      1.000     O          -0.706083           
         O8        1.0000    0.08590   0.66320   0.42871   Biso      1.000     O          -0.68859  
         O9        1.0000    0.30390   0.07630   0.27171   Biso      1.000     O          -0.699291           
         O10       1.0000    0.33570   0.26259   0.35458   Biso      1.000     O          -0.68342  
         O11       1.0000    0.20320   0.93930   0.97951   Biso      1.000     O          -0.618582           
         O12       1.0000    0.94760   0.94930   0.88773   Biso      1.000     O          -0.587675           
         O13       1.0000    0.52550   0.80380   0.06724   Biso      1.000     O          -0.706083           
         O14       1.0000    0.58590   0.83680   0.92871   Biso      1.000     O          -0.68859  
         O15       1.0000    0.80390   0.42370   0.77171   Biso      1.000     O          -0.699291           
         O16       1.0000    0.83570   0.23741   0.85458   Biso      1.000     O          -0.68342  
         O17       1.0000    0.29680   0.43930   0.52049   Biso      1.000     O          -0.618582           
         O18       1.0000    0.55240   0.44930   0.61227   Biso      1.000     O          -0.587676           
         O19       1.0000    0.97450   0.30380   0.43276   Biso      1.000     O          -0.706083           
         O20       1.0000    0.91410   0.33680   0.57129   Biso      1.000     O          -0.68859  
         O21       1.0000    0.69610   0.92370   0.72829   Biso      1.000     O          -0.699291           
         O22       1.0000    0.66430   0.73741   0.64542   Biso      1.000     O          -0.68342  
         O23       1.0000    0.05240   0.05070   0.11227   Biso      1.000     O          -0.587675           
         O24       1.0000    0.79680   0.06070   0.02049   Biso      1.000     O          -0.618582 