
##########################################################################
#               Crystallographic Information Format file
#               Produced by PyCifRW module
#
#  This is a CIF file.  CIF has been adopted by the International
#  Union of Crystallography as the standard for data archiving and
#  transmission.
#
#  For information on this file format, follow the CIF links at
#  http://www.iucr.org
##########################################################################

data_image0

_cell_length_a                          7.7648
_cell_length_b                          9.9827
_cell_length_c                          15.1515
_cell_angle_alpha                       90
_cell_angle_beta                        98.591
_cell_angle_gamma                       90
_symmetry_space_group_name_H-M          'P 1'
_symmetry_int_tables_number             1
loop_
  _symmetry_equiv_pos_as_xyz
         'x, y, z' 
loop_
  _atom_site_label
  _atom_site_occupancy
  _atom_site_fract_x
  _atom_site_fract_y
  _atom_site_fract_z
  _atom_site_thermal_displace_type
  _atom_site_B_iso_or_equiv
  _atom_site_type_symbol
  _atom_site_charge
         C1        1.0000    0.28010   0.05903   0.42777   Biso      1.000     C          -0.085893           
         C2        1.0000    0.80980   0.36400   0.84664   Biso      1.000     C          0.65586   
         C3        1.0000    0.58910   0.76492   0.99852   Biso      1.000     C          0.682003  
         C4        1.0000    0.67550   0.63001   0.00071   Biso      1.000     C          -0.077225           
         C5        1.0000    0.72650   0.56530   0.08145   Biso      1.000     C          0.058822  
         C6        1.0000    0.82900   0.38570   0.01163   Biso      1.000     C          0.076502  
         C7        1.0000    0.78010   0.44097   0.92777   Biso      1.000     C          -0.085892           
         C8        1.0000    0.70550   0.56750   0.92259   Biso      1.000     C          -0.07425599999999999          
         C9        1.0000    0.04290   0.96786   0.96178   Biso      1.000     C          0.5031720000000001  
         C10       1.0000    0.45710   0.46786   0.53822   Biso      1.000     C          0.503171  
         C11       1.0000    0.30980   0.13600   0.34664   Biso      1.000     C          0.65586   
         C12       1.0000    0.17550   0.86999   0.50071   Biso      1.000     C          -0.077225           
         C13       1.0000    0.22650   0.93470   0.58145   Biso      1.000     C          0.058822  
         C14       1.0000    0.32900   0.11430   0.51163   Biso      1.000     C          0.076503  
         C15       1.0000    0.17100   0.61430   0.98837   Biso      1.000     C          0.076501  
         C16       1.0000    0.20550   0.93250   0.42259   Biso      1.000     C          -0.07425599999999999          
         C17       1.0000    0.54290   0.53214   0.46178   Biso      1.000     C          0.5031720000000001  
         C18       1.0000    0.19020   0.63600   0.15336   Biso      1.000     C          0.65586   
         C19       1.0000    0.41090   0.23508   0.00148   Biso      1.000     C          0.682003  
         C20       1.0000    0.08910   0.73508   0.49852   Biso      1.000     C          0.682003  
         C21       1.0000    0.79450   0.06750   0.57741   Biso      1.000     C          -0.07425599999999999          
         C22       1.0000    0.71990   0.94097   0.57223   Biso      1.000     C          -0.08589400000000001          
         C23       1.0000    0.67100   0.88570   0.48837   Biso      1.000     C          0.076503  
         C24       1.0000    0.95710   0.03214   0.03822   Biso      1.000     C          0.5031720000000001  
         C25       1.0000    0.29450   0.43250   0.07741   Biso      1.000     C          -0.07425599999999999          
         C26       1.0000    0.21990   0.55903   0.07223   Biso      1.000     C          -0.085892           
         C27       1.0000    0.32450   0.36999   0.99929   Biso      1.000     C          -0.077225           
         C28       1.0000    0.27350   0.43470   0.91855   Biso      1.000     C          0.058822  
         C29       1.0000    0.69020   0.86400   0.65336   Biso      1.000     C          0.65586   
         C30       1.0000    0.91090   0.26492   0.50148   Biso      1.000     C          0.682003  
         C31       1.0000    0.82450   0.13001   0.49929   Biso      1.000     C          -0.077225           
         C32       1.0000    0.77350   0.06530   0.41855   Biso      1.000     C          0.058822  
         H1        1.0000    0.11930   0.69860   0.98490   Biso      1.000     H          0.09806000000000001           
         H2        1.0000    0.29590   0.39340   0.86650   Biso      1.000     H          0.09899   
         H3        1.0000    0.17600   0.89020   0.36770   Biso      1.000     H          0.128242  
         H4        1.0000    0.38070   0.19860   0.51510   Biso      1.000     H          0.09806000000000001           
         H5        1.0000    0.67600   0.60980   0.86770   Biso      1.000     H          0.128243  
         H6        1.0000    0.88070   0.30140   0.01510   Biso      1.000     H          0.09806000000000001           
         H7        1.0000    0.70410   0.60660   0.13350   Biso      1.000     H          0.09899   
         H8        1.0000    0.82400   0.10980   0.63230   Biso      1.000     H          0.128242  
         H9        1.0000    0.61930   0.80140   0.48490   Biso      1.000     H          0.09806000000000001           
         H10       1.0000    0.79590   0.10660   0.36650   Biso      1.000     H          0.09899   
         H11       1.0000    0.32400   0.39020   0.13230   Biso      1.000     H          0.128243  
         H12       1.0000    0.20410   0.89340   0.63350   Biso      1.000     H          0.09899   
         La1       1.0000    0.85859   0.54327   0.64068   Biso      1.000     La          1.9773020000000001  
         La2       1.0000    0.35859   0.95673   0.14068   Biso      1.000     La          1.9773029999999998  
         La3       1.0000    0.14141   0.45673   0.35932   Biso      1.000     La          1.9773020000000001  
         La4       1.0000    0.64141   0.04327   0.85932   Biso      1.000     La          1.9773029999999998  
         N1        1.0000    0.69330   0.94579   0.41210   Biso      1.000     N          -0.28265500000000005          
         N2        1.0000    0.80670   0.44579   0.08790   Biso      1.000     N          -0.28265500000000005          
         N3        1.0000    0.30670   0.05421   0.58790   Biso      1.000     N          -0.282656           
         N4        1.0000    0.19330   0.55421   0.91210   Biso      1.000     N          -0.28265500000000005          
         O1        1.0000    0.02980   0.69880   0.56673   Biso      1.000     O          -0.659323           
         O2        1.0000    0.30490   0.07534   0.27464   Biso      1.000     O          -0.65028  
         O3        1.0000    0.33727   0.26055   0.35559   Biso      1.000     O          -0.646796           
         O4        1.0000    0.44698   0.55326   0.38942   Biso      1.000     O          -0.570674           
         O5        1.0000    0.19510   0.57534   0.22536   Biso      1.000     O          -0.650279           
         O6        1.0000    0.41800   0.16799   0.07165   Biso      1.000     O          -0.642171           
         O7        1.0000    0.47020   0.19880   0.93327   Biso      1.000     O          -0.659323           
         O8        1.0000    0.08200   0.66799   0.42835   Biso      1.000     O          -0.642171           
         O9        1.0000    0.16273   0.76055   0.14441   Biso      1.000     O          -0.646796           
         O10       1.0000    0.70175   0.55927   0.47939   Biso      1.000     O          -0.5896819999999999           
         O11       1.0000    0.20175   0.94073   0.97939   Biso      1.000     O          -0.5896819999999999           
         O12       1.0000    0.80490   0.42466   0.77464   Biso      1.000     O          -0.650279           
         O13       1.0000    0.83727   0.23945   0.85559   Biso      1.000     O          -0.646796           
         O14       1.0000    0.05302   0.05326   0.11058   Biso      1.000     O          -0.570673           
         O15       1.0000    0.52980   0.80120   0.06673   Biso      1.000     O          -0.659323           
         O16       1.0000    0.58200   0.83201   0.92835   Biso      1.000     O          -0.642171           
         O17       1.0000    0.29825   0.44073   0.52061   Biso      1.000     O          -0.5896819999999999           
         O18       1.0000    0.55302   0.44674   0.61058   Biso      1.000     O          -0.570673           
         O19       1.0000    0.66273   0.73945   0.64441   Biso      1.000     O          -0.646796           
         O20       1.0000    0.69510   0.92466   0.72536   Biso      1.000     O          -0.65028  
         O21       1.0000    0.97020   0.30120   0.43327   Biso      1.000     O          -0.659323           
         O22       1.0000    0.91800   0.33201   0.57165   Biso      1.000     O          -0.642171           
         O23       1.0000    0.94698   0.94674   0.88942   Biso      1.000     O          -0.570673           
         O24       1.0000    0.79825   0.05927   0.02061   Biso      1.000     O          -0.5896819999999999 