
##########################################################################
#               Crystallographic Information Format file
#               Produced by PyCifRW module
#
#  This is a CIF file.  CIF has been adopted by the International
#  Union of Crystallography as the standard for data archiving and
#  transmission.
#
#  For information on this file format, follow the CIF links at
#  http://www.iucr.org
##########################################################################

data_image0

_cell_length_a                          7.6506
_cell_length_b                          9.8596
_cell_length_c                          14.8519
_cell_angle_alpha                       90
_cell_angle_beta                        98.389
_cell_angle_gamma                       90
_symmetry_space_group_name_H-M          'P 1'
_symmetry_int_tables_number             1
loop_
  _symmetry_equiv_pos_as_xyz
         'x, y, z' 
loop_
  _atom_site_label
  _atom_site_occupancy
  _atom_site_fract_x
  _atom_site_fract_y
  _atom_site_fract_z
  _atom_site_thermal_displace_type
  _atom_site_B_iso_or_equiv
  _atom_site_type_symbol
  _atom_site_charge
         C1        1.0000    0.19240   0.36300   0.15590   Biso      1.000     C          0.616374  
         C2        1.0000    0.69240   0.13700   0.65590   Biso      1.000     C          0.616839  
         C3        1.0000    0.77380   0.93160   0.41640   Biso      1.000     C          0.044235000000000003          
         C4        1.0000    0.82590   0.86680   0.49920   Biso      1.000     C          -0.061746           
         C5        1.0000    0.79590   0.93020   0.57880   Biso      1.000     C          -0.082488           
         C6        1.0000    0.72090   0.05820   0.57370   Biso      1.000     C          -0.065137           
         C7        1.0000    0.66930   0.11370   0.48750   Biso      1.000     C          0.054167999999999994          
         C8        1.0000    0.45660   0.53140   0.53880   Biso      1.000     C          0.49923500000000004           
         C9        1.0000    0.58800   0.22950   0.99930   Biso      1.000     C          0.633175  
         C10       1.0000    0.80760   0.63700   0.84410   Biso      1.000     C          0.616823  
         C11       1.0000    0.72620   0.43160   0.08360   Biso      1.000     C          0.044256000000000004          
         C12       1.0000    0.67410   0.36680   0.00080   Biso      1.000     C          -0.061766999999999996         
         C13       1.0000    0.70410   0.43020   0.92120   Biso      1.000     C          -0.082478           
         C14       1.0000    0.77910   0.55820   0.92630   Biso      1.000     C          -0.065163           
         C15       1.0000    0.83070   0.61370   0.01250   Biso      1.000     C          0.054172000000000005          
         C16       1.0000    0.16930   0.38630   0.98750   Biso      1.000     C          0.05432000000000001           
         C17       1.0000    0.22090   0.44180   0.07370   Biso      1.000     C          -0.065971           
         C18       1.0000    0.29590   0.56980   0.07880   Biso      1.000     C          -0.082233           
         C19       1.0000    0.32590   0.63320   0.99920   Biso      1.000     C          -0.06157000000000001          
         C20       1.0000    0.27380   0.56840   0.91640   Biso      1.000     C          0.045045  
         C21       1.0000    0.41200   0.77050   0.00070   Biso      1.000     C          0.633208  
         C22       1.0000    0.54340   0.46860   0.46120   Biso      1.000     C          0.49924799999999997           
         C23       1.0000    0.33070   0.88630   0.51250   Biso      1.000     C          0.054326  
         C24       1.0000    0.27910   0.94180   0.42630   Biso      1.000     C          -0.065983           
         C25       1.0000    0.20410   0.06980   0.42120   Biso      1.000     C          -0.082241           
         C26       1.0000    0.17410   0.13320   0.50080   Biso      1.000     C          -0.061575           
         C27       1.0000    0.22620   0.06840   0.58360   Biso      1.000     C          0.045056  
         C28       1.0000    0.30760   0.86300   0.34410   Biso      1.000     C          0.616371  
         C29       1.0000    0.08800   0.27050   0.49930   Biso      1.000     C          0.633192  
         C30       1.0000    0.95660   0.96860   0.03880   Biso      1.000     C          0.49923900000000004           
         C31       1.0000    0.91200   0.72950   0.50070   Biso      1.000     C          0.633174  
         C32       1.0000    0.04340   0.03140   0.96120   Biso      1.000     C          0.499234  
         Eu1       1.0000    0.85270   0.45549   0.63954   Biso      1.000     Eu          1.383453  
         Eu2       1.0000    0.64730   0.95549   0.86046   Biso      1.000     Eu          1.383476  
         Eu3       1.0000    0.14730   0.54451   0.36046   Biso      1.000     Eu          1.38347   
         Eu4       1.0000    0.35270   0.04451   0.13954   Biso      1.000     Eu          1.38351   
         H1        1.0000    0.20390   0.11070   0.63670   Biso      1.000     H          0.11355599999999999           
         H2        1.0000    0.88460   0.69850   0.01600   Biso      1.000     H          0.100337  
         H3        1.0000    0.67420   0.38750   0.86520   Biso      1.000     H          0.139414  
         H4        1.0000    0.70390   0.38930   0.13670   Biso      1.000     H          0.113528  
         H5        1.0000    0.61540   0.19850   0.48400   Biso      1.000     H          0.100354  
         H6        1.0000    0.17420   0.11250   0.36520   Biso      1.000     H          0.139267  
         H7        1.0000    0.79610   0.88930   0.36330   Biso      1.000     H          0.113541  
         H8        1.0000    0.11540   0.30150   0.98400   Biso      1.000     H          0.100275  
         H9        1.0000    0.32580   0.61250   0.13480   Biso      1.000     H          0.13927   
         H10       1.0000    0.29610   0.61070   0.86330   Biso      1.000     H          0.11355799999999999           
         H11       1.0000    0.82580   0.88750   0.63480   Biso      1.000     H          0.13942100000000002           
         H12       1.0000    0.38460   0.80150   0.51600   Biso      1.000     H          0.100273  
         N1        1.0000    0.80750   0.55300   0.08990   Biso      1.000     N          -0.182149           
         N2        1.0000    0.69250   0.05300   0.41010   Biso      1.000     N          -0.18206  
         N3        1.0000    0.19250   0.44700   0.91010   Biso      1.000     N          -0.18290499999999998          
         N4        1.0000    0.30750   0.94700   0.58990   Biso      1.000     N          -0.182945           
         O1        1.0000    0.16600   0.23600   0.14647   Biso      1.000     O          -0.581521           
         O2        1.0000    0.41050   0.84100   0.07107   Biso      1.000     O          -0.552545           
         O3        1.0000    0.47760   0.80610   0.93221   Biso      1.000     O          -0.604416           
         O4        1.0000    0.44710   0.45100   0.38643   Biso      1.000     O          -0.450816           
         O5        1.0000    0.08950   0.34100   0.42893   Biso      1.000     O          -0.552503           
         O6        1.0000    0.30420   0.92270   0.26981   Biso      1.000     O          -0.555344           
         O7        1.0000    0.33400   0.73600   0.35353   Biso      1.000     O          -0.5814819999999999           
         O8        1.0000    0.19580   0.42270   0.23019   Biso      1.000     O          -0.555331           
         O9        1.0000    0.02240   0.30610   0.56779   Biso      1.000     O          -0.604372           
         O10       1.0000    0.70360   0.43800   0.47958   Biso      1.000     O          -0.445773           
         O11       1.0000    0.20360   0.06200   0.97958   Biso      1.000     O          -0.44641400000000003          
         O12       1.0000    0.58950   0.15900   0.92893   Biso      1.000     O          -0.551715           
         O13       1.0000    0.97760   0.69390   0.43221   Biso      1.000     O          -0.604958           
         O14       1.0000    0.91050   0.65900   0.57107   Biso      1.000     O          -0.551761           
         O15       1.0000    0.66600   0.26400   0.64647   Biso      1.000     O          -0.587253           
         O16       1.0000    0.69580   0.07730   0.73019   Biso      1.000     O          -0.554304           
         O17       1.0000    0.29640   0.56200   0.52042   Biso      1.000     O          -0.446417           
         O18       1.0000    0.55290   0.54900   0.61357   Biso      1.000     O          -0.45003699999999996          
         O19       1.0000    0.52240   0.19390   0.06779   Biso      1.000     O          -0.604935           
         O20       1.0000    0.83400   0.76400   0.85353   Biso      1.000     O          -0.587014           
         O21       1.0000    0.80420   0.57730   0.76981   Biso      1.000     O          -0.554395           
         O22       1.0000    0.05290   0.95100   0.11357   Biso      1.000     O          -0.450809           
         O23       1.0000    0.94710   0.04900   0.88643   Biso      1.000     O          -0.450079           
         O24       1.0000    0.79640   0.93800   0.02042   Biso      1.000     O          -0.445788 