
##########################################################################
#               Crystallographic Information Format file
#               Produced by PyCifRW module
#
#  This is a CIF file.  CIF has been adopted by the International
#  Union of Crystallography as the standard for data archiving and
#  transmission.
#
#  For information on this file format, follow the CIF links at
#  http://www.iucr.org
##########################################################################

data_image0

_cell_length_a                          7.6799
_cell_length_b                          9.8742
_cell_length_c                          14.893
_cell_angle_alpha                       90
_cell_angle_beta                        98.364
_cell_angle_gamma                       90
_symmetry_space_group_name_H-M          'P 1'
_symmetry_int_tables_number             1
loop_
  _symmetry_equiv_pos_as_xyz
         'x, y, z' 
loop_
  _atom_site_label
  _atom_site_occupancy
  _atom_site_fract_x
  _atom_site_fract_y
  _atom_site_fract_z
  _atom_site_thermal_displace_type
  _atom_site_B_iso_or_equiv
  _atom_site_type_symbol
  _atom_site_charge
         C1        1.0000    0.41120   0.23020   0.50080   Biso      1.000     C          0.632071  
         C2        1.0000    0.91120   0.26980   0.00080   Biso      1.000     C          0.632023  
         C3        1.0000    0.82550   0.13340   0.99870   Biso      1.000     C          -0.062019000000000005         
         C4        1.0000    0.77480   0.06770   0.91720   Biso      1.000     C          0.045647  
         C5        1.0000    0.66960   0.88640   0.98810   Biso      1.000     C          0.056287000000000004          
         C6        1.0000    0.72010   0.94170   0.07340   Biso      1.000     C          -0.068122           
         C7        1.0000    0.69170   0.86320   0.15610   Biso      1.000     C          0.6174430000000001  
         C8        1.0000    0.45640   0.46870   0.03910   Biso      1.000     C          0.501162  
         C9        1.0000    0.70370   0.56960   0.42120   Biso      1.000     C          -0.083346           
         C10       1.0000    0.58880   0.76980   0.49920   Biso      1.000     C          0.6320020000000001  
         C11       1.0000    0.67450   0.63340   0.50130   Biso      1.000     C          -0.061974           
         C12       1.0000    0.72520   0.56770   0.58280   Biso      1.000     C          0.045711  
         C13       1.0000    0.83040   0.38640   0.51190   Biso      1.000     C          0.056277  
         C14       1.0000    0.77990   0.44170   0.42660   Biso      1.000     C          -0.068138           
         C15       1.0000    0.80830   0.36320   0.34390   Biso      1.000     C          0.617441  
         C16       1.0000    0.19170   0.63680   0.65610   Biso      1.000     C          0.620035  
         C17       1.0000    0.22010   0.55830   0.57340   Biso      1.000     C          -0.066081           
         C18       1.0000    0.16960   0.61360   0.48810   Biso      1.000     C          0.054424  
         C19       1.0000    0.27480   0.43230   0.41720   Biso      1.000     C          0.043344  
         C20       1.0000    0.32550   0.36660   0.49870   Biso      1.000     C          -0.062204999999999996         
         C21       1.0000    0.29630   0.43040   0.57880   Biso      1.000     C          -0.083649           
         C22       1.0000    0.54360   0.53130   0.96090   Biso      1.000     C          0.500508  
         C23       1.0000    0.30830   0.13680   0.84390   Biso      1.000     C          0.6193420000000001  
         C24       1.0000    0.27990   0.05830   0.92660   Biso      1.000     C          -0.066095           
         C25       1.0000    0.33040   0.11360   0.01190   Biso      1.000     C          0.054462  
         C26       1.0000    0.22520   0.93230   0.08280   Biso      1.000     C          0.043479000000000004          
         C27       1.0000    0.17450   0.86660   0.00130   Biso      1.000     C          -0.062143           
         C28       1.0000    0.08880   0.73020   0.99920   Biso      1.000     C          0.632095  
         C29       1.0000    0.20370   0.93040   0.92120   Biso      1.000     C          -0.083527           
         C30       1.0000    0.95640   0.03130   0.53910   Biso      1.000     C          0.500567  
         C31       1.0000    0.79630   0.06960   0.07880   Biso      1.000     C          -0.083353           
         C32       1.0000    0.04360   0.96870   0.46090   Biso      1.000     C          0.501207  
         Eu1       1.0000    0.85341   0.54448   0.13956   Biso      1.000     Eu          1.38774   
         Eu2       1.0000    0.64659   0.04448   0.36044   Biso      1.000     Eu          1.3876549999999999  
         Eu3       1.0000    0.14659   0.45552   0.86044   Biso      1.000     Eu          1.3884239999999999  
         Eu4       1.0000    0.35341   0.95552   0.63956   Biso      1.000     Eu          1.388732  
         H1        1.0000    0.17270   0.88820   0.86530   Biso      1.000     H          0.13977799999999999           
         H2        1.0000    0.88400   0.30170   0.51530   Biso      1.000     H          0.099867  
         H3        1.0000    0.70170   0.60920   0.63580   Biso      1.000     H          0.11205699999999999           
         H4        1.0000    0.67270   0.61180   0.36530   Biso      1.000     H          0.139204  
         H5        1.0000    0.61600   0.80170   0.98470   Biso      1.000     H          0.099853  
         H6        1.0000    0.20170   0.89080   0.13580   Biso      1.000     H          0.111676  
         H7        1.0000    0.82730   0.11180   0.13470   Biso      1.000     H          0.13919700000000002           
         H8        1.0000    0.11600   0.69830   0.48470   Biso      1.000     H          0.10001499999999999           
         H9        1.0000    0.29830   0.39080   0.36420   Biso      1.000     H          0.11169000000000001           
         H10       1.0000    0.32730   0.38820   0.63470   Biso      1.000     H          0.139808  
         H11       1.0000    0.79830   0.10920   0.86420   Biso      1.000     H          0.11202100000000001           
         H12       1.0000    0.38400   0.19830   0.01530   Biso      1.000     H          0.099989  
         N1        1.0000    0.80710   0.44660   0.58940   Biso      1.000     N          -0.18676900000000002          
         N2        1.0000    0.69290   0.94660   0.91060   Biso      1.000     N          -0.186861           
         N3        1.0000    0.19290   0.55340   0.41060   Biso      1.000     N          -0.186834           
         N4        1.0000    0.30710   0.05340   0.08940   Biso      1.000     N          -0.18704300000000001          
         O1        1.0000    0.16520   0.76320   0.64614   Biso      1.000     O          -0.590554           
         O2        1.0000    0.41240   0.16030   0.57150   Biso      1.000     O          -0.554234           
         O3        1.0000    0.47660   0.19470   0.43240   Biso      1.000     O          -0.605158           
         O4        1.0000    0.44690   0.54960   0.88680   Biso      1.000     O          -0.446287           
         O5        1.0000    0.08760   0.66030   0.92850   Biso      1.000     O          -0.55416  
         O6        1.0000    0.30500   0.07620   0.77020   Biso      1.000     O          -0.560898           
         O7        1.0000    0.33480   0.26320   0.85386   Biso      1.000     O          -0.588472           
         O8        1.0000    0.19500   0.57620   0.72980   Biso      1.000     O          -0.5608569999999999           
         O9        1.0000    0.02340   0.69470   0.06760   Biso      1.000     O          -0.605763           
         O10       1.0000    0.70290   0.56200   0.97933   Biso      1.000     O          -0.444956           
         O11       1.0000    0.20290   0.93800   0.47933   Biso      1.000     O          -0.445741           
         O12       1.0000    0.58760   0.83970   0.42850   Biso      1.000     O          -0.557262           
         O13       1.0000    0.97660   0.30530   0.93240   Biso      1.000     O          -0.599152           
         O14       1.0000    0.91240   0.33970   0.07150   Biso      1.000     O          -0.557337           
         O15       1.0000    0.66520   0.73680   0.14614   Biso      1.000     O          -0.580386           
         O16       1.0000    0.69500   0.92380   0.22980   Biso      1.000     O          -0.548709           
         O17       1.0000    0.29710   0.43800   0.02067   Biso      1.000     O          -0.44558100000000006          
         O18       1.0000    0.55310   0.45040   0.11320   Biso      1.000     O          -0.45014  
         O19       1.0000    0.52340   0.80530   0.56760   Biso      1.000     O          -0.5990489999999999           
         O20       1.0000    0.83480   0.23680   0.35386   Biso      1.000     O          -0.5804   
         O21       1.0000    0.80500   0.42380   0.27020   Biso      1.000     O          -0.5487270000000001           
         O22       1.0000    0.05310   0.04960   0.61320   Biso      1.000     O          -0.44611999999999996          
         O23       1.0000    0.94690   0.95040   0.38680   Biso      1.000     O          -0.450009           
         O24       1.0000    0.79710   0.06200   0.52067   Biso      1.000     O          -0.44512299999999994 