
##########################################################################
#               Crystallographic Information Format file
#               Produced by PyCifRW module
#
#  This is a CIF file.  CIF has been adopted by the International
#  Union of Crystallography as the standard for data archiving and
#  transmission.
#
#  For information on this file format, follow the CIF links at
#  http://www.iucr.org
##########################################################################

data_image0

_cell_length_a                          8.3837
_cell_length_b                          8.3837
_cell_length_c                          16.8473
_cell_angle_alpha                       90
_cell_angle_beta                        90
_cell_angle_gamma                       90
_symmetry_space_group_name_H-M          'P 1'
_symmetry_int_tables_number             1
loop_
  _symmetry_equiv_pos_as_xyz
         'x, y, z' 
loop_
  _atom_site_label
  _atom_site_occupancy
  _atom_site_fract_x
  _atom_site_fract_y
  _atom_site_fract_z
  _atom_site_thermal_displace_type
  _atom_site_B_iso_or_equiv
  _atom_site_type_symbol
  _atom_site_charge
         C1        1.0000    0.82600   0.79177   0.95096   Biso      1.000     C          0.135794  
         C2        1.0000    0.62780   0.20330   0.16527   Biso      1.000     C          0.08754400000000001           
         C3        1.0000    0.71100   0.10698   0.11294   Biso      1.000     C          -0.214716           
         C4        1.0000    0.79177   0.17400   0.04904   Biso      1.000     C          0.13580599999999998           
         C5        1.0000    0.77900   0.33981   0.04041   Biso      1.000     C          -0.207869           
         C6        1.0000    0.69450   0.42730   0.09570   Biso      1.000     C          0.08114   
         C7        1.0000    0.10296   0.91929   0.99410   Biso      1.000     C          -0.08968200000000001          
         C8        1.0000    0.37220   0.79670   0.16527   Biso      1.000     C          0.087536  
         C9        1.0000    0.28900   0.89302   0.11294   Biso      1.000     C          -0.214718           
         C10       1.0000    0.20823   0.82600   0.04904   Biso      1.000     C          0.13580799999999998           
         C11       1.0000    0.89704   0.08071   0.99410   Biso      1.000     C          -0.08968  
         C12       1.0000    0.22100   0.66019   0.04041   Biso      1.000     C          -0.20786300000000002          
         C13       1.0000    0.91929   0.89704   0.00590   Biso      1.000     C          -0.089675           
         C14       1.0000    0.79670   0.62780   0.83473   Biso      1.000     C          0.087541  
         C15       1.0000    0.89302   0.71100   0.88706   Biso      1.000     C          -0.21473000000000003          
         C16       1.0000    0.66019   0.77900   0.95959   Biso      1.000     C          -0.20787399999999998          
         C17       1.0000    0.57270   0.69450   0.90430   Biso      1.000     C          0.081127  
         C18       1.0000    0.42730   0.30550   0.90430   Biso      1.000     C          0.08112799999999999           
         C19       1.0000    0.33981   0.22100   0.95959   Biso      1.000     C          -0.20786999999999997          
         C20       1.0000    0.17400   0.20823   0.95096   Biso      1.000     C          0.135799  
         C21       1.0000    0.10698   0.28900   0.88706   Biso      1.000     C          -0.21472  
         C22       1.0000    0.30550   0.57270   0.09570   Biso      1.000     C          0.081135  
         C23       1.0000    0.42730   0.69450   0.40430   Biso      1.000     C          0.08113200000000001           
         C24       1.0000    0.33981   0.77900   0.45959   Biso      1.000     C          -0.20786500000000002          
         C25       1.0000    0.17400   0.79177   0.45096   Biso      1.000     C          0.13580599999999998           
         C26       1.0000    0.89704   0.91929   0.49410   Biso      1.000     C          -0.089676           
         C27       1.0000    0.62780   0.79670   0.66527   Biso      1.000     C          0.08753899999999999           
         C28       1.0000    0.71100   0.89302   0.61294   Biso      1.000     C          -0.21472800000000003          
         C29       1.0000    0.79177   0.82600   0.54904   Biso      1.000     C          0.135799  
         C30       1.0000    0.77900   0.66019   0.54041   Biso      1.000     C          -0.207875           
         C31       1.0000    0.69450   0.57270   0.59570   Biso      1.000     C          0.081126  
         C32       1.0000    0.10296   0.08071   0.49410   Biso      1.000     C          -0.089675           
         C33       1.0000    0.37220   0.20330   0.66527   Biso      1.000     C          0.087542  
         C34       1.0000    0.28900   0.10698   0.61294   Biso      1.000     C          -0.214723           
         C35       1.0000    0.20823   0.17400   0.54904   Biso      1.000     C          0.135802  
         C36       1.0000    0.22100   0.33981   0.54041   Biso      1.000     C          -0.20786999999999997          
         C37       1.0000    0.30550   0.42730   0.59570   Biso      1.000     C          0.081131  
         C38       1.0000    0.91929   0.10296   0.50590   Biso      1.000     C          -0.08968  
         C39       1.0000    0.79670   0.37220   0.33473   Biso      1.000     C          0.08753999999999999           
         C40       1.0000    0.89302   0.28900   0.38706   Biso      1.000     C          -0.214719           
         C41       1.0000    0.82600   0.20823   0.45096   Biso      1.000     C          0.13580799999999998           
         C42       1.0000    0.66019   0.22100   0.45959   Biso      1.000     C          -0.207867           
         C43       1.0000    0.57270   0.30550   0.40430   Biso      1.000     C          0.081136  
         C44       1.0000    0.08071   0.89704   0.50590   Biso      1.000     C          -0.08968  
         C45       1.0000    0.20330   0.62780   0.33473   Biso      1.000     C          0.087545  
         C46       1.0000    0.10698   0.71100   0.38706   Biso      1.000     C          -0.214714           
         C47       1.0000    0.20330   0.37220   0.83473   Biso      1.000     C          0.087541  
         C48       1.0000    0.08071   0.10296   0.00590   Biso      1.000     C          -0.089675           
         Co1       1.0000    0.50000   0.50000   0.75000   Biso      1.000     Co          0.598356  
         Co2       1.0000    0.50000   0.50000   0.25000   Biso      1.000     Co          0.598201  
         F1        1.0000    0.33254   0.33254   0.25000   Biso      1.000     F          -0.572778           
         F2        1.0000    0.66746   0.66746   0.25000   Biso      1.000     F          -0.572778           
         F3        1.0000    0.66746   0.33254   0.75000   Biso      1.000     F          -0.5728880000000001           
         F4        1.0000    0.33254   0.66746   0.75000   Biso      1.000     F          -0.5728810000000001           
         H1        1.0000    0.13210   0.89650   0.93830   Biso      1.000     H          0.103795  
         H2        1.0000    0.86790   0.89650   0.43830   Biso      1.000     H          0.10378   
         H3        1.0000    0.28720   0.00410   0.12060   Biso      1.000     H          0.126053  
         H4        1.0000    0.17220   0.60880   0.99720   Biso      1.000     H          0.122743  
         H5        1.0000    0.31140   0.46150   0.08900   Biso      1.000     H          0.086322  
         H6        1.0000    0.89650   0.86790   0.06170   Biso      1.000     H          0.103778  
         H7        1.0000    0.84520   0.57370   0.79220   Biso      1.000     H          0.100876  
         H8        1.0000    0.46150   0.68860   0.91100   Biso      1.000     H          0.086326  
         H9        1.0000    0.60880   0.82780   0.00280   Biso      1.000     H          0.12273699999999999           
         H10       1.0000    0.68860   0.53850   0.08900   Biso      1.000     H          0.086324  
         H11       1.0000    0.10350   0.13210   0.06170   Biso      1.000     H          0.103779  
         H12       1.0000    0.15480   0.42630   0.79220   Biso      1.000     H          0.100883  
         H13       1.0000    0.99590   0.28720   0.87940   Biso      1.000     H          0.126058  
         H14       1.0000    0.39120   0.17220   0.00280   Biso      1.000     H          0.122742  
         H15       1.0000    0.53850   0.31140   0.91100   Biso      1.000     H          0.08633300000000001           
         H16       1.0000    0.00410   0.71280   0.87940   Biso      1.000     H          0.126055  
         H17       1.0000    0.82780   0.39120   0.99720   Biso      1.000     H          0.122748  
         H18       1.0000    0.57370   0.84520   0.70780   Biso      1.000     H          0.100882  
         H19       1.0000    0.57370   0.15480   0.20780   Biso      1.000     H          0.100856  
         H20       1.0000    0.71280   0.00410   0.62060   Biso      1.000     H          0.126057  
         H21       1.0000    0.82780   0.60880   0.49720   Biso      1.000     H          0.122743  
         H22       1.0000    0.68860   0.46150   0.58900   Biso      1.000     H          0.086332  
         H23       1.0000    0.13210   0.10350   0.43830   Biso      1.000     H          0.10378   
         H24       1.0000    0.42630   0.15480   0.70780   Biso      1.000     H          0.10088   
         H25       1.0000    0.71280   0.99590   0.12060   Biso      1.000     H          0.126052  
         H26       1.0000    0.17220   0.39120   0.49720   Biso      1.000     H          0.12273800000000001           
         H27       1.0000    0.31140   0.53850   0.58900   Biso      1.000     H          0.086327  
         H28       1.0000    0.89650   0.13210   0.56170   Biso      1.000     H          0.10379400000000001           
         H29       1.0000    0.28720   0.99590   0.62060   Biso      1.000     H          0.126055  
         H30       1.0000    0.00410   0.28720   0.37940   Biso      1.000     H          0.126055  
         H31       1.0000    0.86790   0.10350   0.93830   Biso      1.000     H          0.103795  
         H32       1.0000    0.53850   0.68860   0.41100   Biso      1.000     H          0.086324  
         H33       1.0000    0.84520   0.42630   0.29220   Biso      1.000     H          0.10086200000000001           
         H34       1.0000    0.39120   0.82780   0.50280   Biso      1.000     H          0.12274700000000001           
         H35       1.0000    0.42630   0.84520   0.20780   Biso      1.000     H          0.10086200000000001           
         H36       1.0000    0.15480   0.57370   0.29220   Biso      1.000     H          0.100858  
         H37       1.0000    0.10350   0.86790   0.56170   Biso      1.000     H          0.103796  
         H38       1.0000    0.46150   0.31140   0.41100   Biso      1.000     H          0.086322  
         H39       1.0000    0.60880   0.17220   0.50280   Biso      1.000     H          0.122742  
         H40       1.0000    0.99590   0.71280   0.37940   Biso      1.000     H          0.126052  
         N1        1.0000    0.36241   0.37952   0.84177   Biso      1.000     N          -0.195177           
         N2        1.0000    0.63759   0.62048   0.84177   Biso      1.000     N          -0.195163           
         N3        1.0000    0.62048   0.36241   0.15823   Biso      1.000     N          -0.195113           
         N4        1.0000    0.36241   0.62048   0.34177   Biso      1.000     N          -0.195106           
         N5        1.0000    0.63759   0.37952   0.34177   Biso      1.000     N          -0.19513699999999998          
         N6        1.0000    0.37952   0.36241   0.65823   Biso      1.000     N          -0.195129           
         N7        1.0000    0.62048   0.63759   0.65823   Biso      1.000     N          -0.195172           
         N8        1.0000    0.37952   0.63759   0.15823   Biso      1.000     N          -0.19514 