
##########################################################################
#               Crystallographic Information Format file
#               Produced by PyCifRW module
#
#  This is a CIF file.  CIF has been adopted by the International
#  Union of Crystallography as the standard for data archiving and
#  transmission.
#
#  For information on this file format, follow the CIF links at
#  http://www.iucr.org
##########################################################################

data_image0

_cell_length_a                          11.4799
_cell_length_b                          11.4799
_cell_length_c                          14.735
_cell_angle_alpha                       90
_cell_angle_beta                        90
_cell_angle_gamma                       120
_symmetry_space_group_name_H-M          'P 1'
_symmetry_int_tables_number             1
loop_
  _symmetry_equiv_pos_as_xyz
         'x, y, z' 
loop_
  _atom_site_label
  _atom_site_occupancy
  _atom_site_fract_x
  _atom_site_fract_y
  _atom_site_fract_z
  _atom_site_thermal_displace_type
  _atom_site_B_iso_or_equiv
  _atom_site_type_symbol
  _atom_site_charge
         C1        1.0000    0.31519   0.72283   0.97526   Biso      1.000     C          0.080585  
         C2        1.0000    0.68481   0.40764   0.35807   Biso      1.000     C          0.079513  
         C3        1.0000    0.31811   0.89760   0.44584   Biso      1.000     C          0.65964   
         C4        1.0000    0.34719   0.82368   0.51920   Biso      1.000     C          -0.071207           
         C5        1.0000    0.27717   0.68481   0.52474   Biso      1.000     C          0.080583  
         C6        1.0000    0.57949   0.68189   0.11251   Biso      1.000     C          0.65898   
         C7        1.0000    0.47649   0.65281   0.18587   Biso      1.000     C          -0.06995  
         C8        1.0000    0.40764   0.72283   0.19141   Biso      1.000     C          0.079628  
         C9        1.0000    0.10240   0.42051   0.77917   Biso      1.000     C          0.65898   
         C10       1.0000    0.17632   0.52351   0.85253   Biso      1.000     C          -0.069653           
         C11       1.0000    0.31519   0.59236   0.85807   Biso      1.000     C          0.079515  
         C12       1.0000    0.57949   0.89760   0.72083   Biso      1.000     C          0.658968  
         C13       1.0000    0.47649   0.82368   0.64747   Biso      1.000     C          -0.069649           
         C14       1.0000    0.82368   0.47649   0.35253   Biso      1.000     C          -0.069649           
         C15       1.0000    0.40764   0.68481   0.64193   Biso      1.000     C          0.079512  
         C16       1.0000    0.17632   0.65281   0.98080   Biso      1.000     C          -0.071208           
         C17       1.0000    0.55332   0.10664   0.08333   Biso      1.000     C          -0.064598           
         C18       1.0000    0.31811   0.42051   0.38749   Biso      1.000     C          0.658988  
         C19       1.0000    0.34719   0.52351   0.31413   Biso      1.000     C          -0.069953           
         C20       1.0000    0.27717   0.59236   0.30859   Biso      1.000     C          0.079632  
         C21       1.0000    0.42051   0.10240   0.22083   Biso      1.000     C          0.658981  
         C22       1.0000    0.52351   0.17632   0.14747   Biso      1.000     C          -0.069655           
         C23       1.0000    0.59236   0.31519   0.14193   Biso      1.000     C          0.079513  
         C24       1.0000    0.89760   0.31811   0.55416   Biso      1.000     C          0.659639  
         C25       1.0000    0.82368   0.34719   0.48080   Biso      1.000     C          -0.071207           
         C26       1.0000    0.68481   0.27717   0.47526   Biso      1.000     C          0.080583  
         C27       1.0000    0.68189   0.57949   0.88749   Biso      1.000     C          0.658987  
         C28       1.0000    0.10240   0.68189   0.05416   Biso      1.000     C          0.659644  
         C29       1.0000    0.89760   0.57949   0.27917   Biso      1.000     C          0.658957  
         C30       1.0000    0.59236   0.27717   0.69141   Biso      1.000     C          0.079632  
         C31       1.0000    0.52351   0.34719   0.68587   Biso      1.000     C          -0.069953           
         C32       1.0000    0.10664   0.55332   0.91667   Biso      1.000     C          -0.064592           
         C33       1.0000    0.44668   0.55332   0.25000   Biso      1.000     C          -0.065848           
         C34       1.0000    0.44668   0.89336   0.58333   Biso      1.000     C          -0.064593           
         C35       1.0000    0.89336   0.44668   0.41667   Biso      1.000     C          -0.064593           
         C36       1.0000    0.55332   0.44668   0.75000   Biso      1.000     C          -0.06585  
         C37       1.0000    0.65281   0.47649   0.81413   Biso      1.000     C          -0.06995  
         C38       1.0000    0.72283   0.40764   0.80859   Biso      1.000     C          0.079629  
         C39       1.0000    0.42051   0.31811   0.61251   Biso      1.000     C          0.658988  
         C40       1.0000    0.72283   0.31519   0.02474   Biso      1.000     C          0.080579  
         C41       1.0000    0.65281   0.17632   0.01920   Biso      1.000     C          -0.071205           
         C42       1.0000    0.68189   0.10240   0.94584   Biso      1.000     C          0.65964   
         H1        1.0000    0.98700   0.49350   0.41667   Biso      1.000     H          0.128659  
         H2        1.0000    0.01300   0.50650   0.91667   Biso      1.000     H          0.12866   
         H3        1.0000    0.79500   0.36250   0.98550   Biso      1.000     H          0.095209  
         H4        1.0000    0.56750   0.20500   0.65217   Biso      1.000     H          0.095752  
         H5        1.0000    0.63750   0.43250   0.31883   Biso      1.000     H          0.095994  
         H6        1.0000    0.20500   0.63750   0.48550   Biso      1.000     H          0.09521   
         H7        1.0000    0.43250   0.79500   0.15217   Biso      1.000     H          0.095752  
         H8        1.0000    0.36250   0.56750   0.81883   Biso      1.000     H          0.095994  
         H9        1.0000    0.43250   0.63750   0.68117   Biso      1.000     H          0.095994  
         H10       1.0000    0.36250   0.79500   0.01450   Biso      1.000     H          0.09521   
         H11       1.0000    0.49350   0.50650   0.25000   Biso      1.000     H          0.128762  
         H12       1.0000    0.56750   0.36250   0.18117   Biso      1.000     H          0.095994  
         H13       1.0000    0.63750   0.20500   0.51450   Biso      1.000     H          0.09521   
         H14       1.0000    0.79500   0.43250   0.84783   Biso      1.000     H          0.095752  
         H15       1.0000    0.50650   0.01300   0.08333   Biso      1.000     H          0.128659  
         H16       1.0000    0.50650   0.49350   0.75000   Biso      1.000     H          0.128761  
         H17       1.0000    0.49350   0.98700   0.58333   Biso      1.000     H          0.128659  
         H18       1.0000    0.20500   0.56750   0.34783   Biso      1.000     H          0.095752  
         Mg1       1.0000    0.80620   0.19381   0.75000   Biso      1.000     Mg          1.368376  
         Mg2       1.0000    0.19381   0.38761   0.58333   Biso      1.000     Mg          1.368535  
         Mg3       1.0000    0.61239   0.80619   0.91667   Biso      1.000     Mg          1.368535  
         Mg4       1.0000    0.19381   0.80620   0.25000   Biso      1.000     Mg          1.368374  
         Mg5       1.0000    0.80620   0.61240   0.08333   Biso      1.000     Mg          1.368473  
         Mg6       1.0000    0.38761   0.19381   0.41667   Biso      1.000     Mg          1.368535  
         N1        1.0000    0.30713   0.69287   0.25000   Biso      1.000     N          -0.296604           
         N2        1.0000    0.30713   0.61426   0.58333   Biso      1.000     N          -0.297763           
         N3        1.0000    0.38574   0.69287   0.91667   Biso      1.000     N          -0.297759           
         N4        1.0000    0.69287   0.30713   0.75000   Biso      1.000     N          -0.296603           
         N5        1.0000    0.69287   0.38574   0.08333   Biso      1.000     N          -0.297735           
         N6        1.0000    0.61426   0.30713   0.41667   Biso      1.000     N          -0.297762           
         O1        1.0000    0.60064   0.82795   0.77661   Biso      1.000     O          -0.680015           
         O2        1.0000    0.02240   0.38890   0.55312   Biso      1.000     O          -0.651863           
         O3        1.0000    0.82795   0.22731   0.60994   Biso      1.000     O          -0.680124           
         O4        1.0000    0.36650   0.97760   0.21979   Biso      1.000     O          -0.651983           
         O5        1.0000    0.39936   0.17205   0.27661   Biso      1.000     O          -0.680012           
         O6        1.0000    0.38890   0.36650   0.38645   Biso      1.000     O          -0.651819           
         O7        1.0000    0.22731   0.39936   0.44327   Biso      1.000     O          -0.679873           
         O8        1.0000    0.97760   0.61110   0.05312   Biso      1.000     O          -0.65186  
         O9        1.0000    0.17205   0.77269   0.10994   Biso      1.000     O          -0.68012  
         O10       1.0000    0.63350   0.02240   0.71979   Biso      1.000     O          -0.651956           
         O11       1.0000    0.97760   0.36650   0.78021   Biso      1.000     O          -0.65198  
         O12       1.0000    0.22731   0.82795   0.39006   Biso      1.000     O          -0.680124           
         O13       1.0000    0.63350   0.61110   0.11355   Biso      1.000     O          -0.651797           
         O14       1.0000    0.60064   0.77269   0.05673   Biso      1.000     O          -0.679876           
         O15       1.0000    0.38890   0.02240   0.44688   Biso      1.000     O          -0.651862           
         O16       1.0000    0.77269   0.60064   0.94327   Biso      1.000     O          -0.67986  
         O17       1.0000    0.02240   0.63350   0.28021   Biso      1.000     O          -0.651958           
         O18       1.0000    0.82795   0.60064   0.22339   Biso      1.000     O          -0.679978           
         O19       1.0000    0.36650   0.38890   0.61355   Biso      1.000     O          -0.651819           
         O20       1.0000    0.39936   0.22731   0.55673   Biso      1.000     O          -0.679873           
         O21       1.0000    0.61110   0.97760   0.94688   Biso      1.000     O          -0.651863           
         O22       1.0000    0.77269   0.17205   0.89006   Biso      1.000     O          -0.680123           
         O23       1.0000    0.17205   0.39936   0.72339   Biso      1.000     O          -0.68001  
         O24       1.0000    0.61110   0.63350   0.88645   Biso      1.000     O          -0.651819 