
##########################################################################
#               Crystallographic Information Format file
#               Produced by PyCifRW module
#
#  This is a CIF file.  CIF has been adopted by the International
#  Union of Crystallography as the standard for data archiving and
#  transmission.
#
#  For information on this file format, follow the CIF links at
#  http://www.iucr.org
##########################################################################

data_image0

_cell_length_a                          9.1267
_cell_length_b                          15.361
_cell_length_c                          17.61
_cell_angle_alpha                       90
_cell_angle_beta                        90
_cell_angle_gamma                       93.06
_symmetry_space_group_name_H-M          'P 1'
_symmetry_int_tables_number             1
loop_
  _symmetry_equiv_pos_as_xyz
         'x, y, z' 
loop_
  _atom_site_label
  _atom_site_occupancy
  _atom_site_fract_x
  _atom_site_fract_y
  _atom_site_fract_z
  _atom_site_thermal_displace_type
  _atom_site_B_iso_or_equiv
  _atom_site_type_symbol
  _atom_site_charge
         C1        1.0000    0.77330   0.00090   0.44400   Biso      1.000     C          -0.44552700000000006          
         C2        1.0000    0.15450   0.70790   0.23820   Biso      1.000     C          0.081575  
         C3        1.0000    0.27420   0.76680   0.23910   Biso      1.000     C          -0.166704           
         C4        1.0000    0.25090   0.85560   0.23330   Biso      1.000     C          0.104625  
         C5        1.0000    0.10790   0.88070   0.22730   Biso      1.000     C          -0.16337100000000002          
         C6        1.0000    0.99450   0.81730   0.22600   Biso      1.000     C          0.078988  
         C7        1.0000    0.61860   0.97250   0.20050   Biso      1.000     C          0.057447000000000005          
         C8        1.0000    0.50500   0.90900   0.19600   Biso      1.000     C          -0.168219           
         C9        1.0000    0.37530   0.92190   0.23510   Biso      1.000     C          0.095118  
         C10       1.0000    0.36590   0.99840   0.27680   Biso      1.000     C          -0.199881           
         C11       1.0000    0.48530   0.05760   0.27880   Biso      1.000     C          0.060640999999999994          
         C12       1.0000    0.63800   0.80470   0.55300   Biso      1.000     C          0.645038  
         C13       1.0000    0.61800   0.89250   0.51510   Biso      1.000     C          -0.273681           
         C14       1.0000    0.77330   0.50090   0.05600   Biso      1.000     C          -0.44553000000000004          
         C15       1.0000    0.73680   0.78410   0.36030   Biso      1.000     C          0.661465  
         C16       1.0000    0.84550   0.79210   0.73820   Biso      1.000     C          0.081576  
         C17       1.0000    0.72580   0.73320   0.73910   Biso      1.000     C          -0.166704           
         C18       1.0000    0.74910   0.64440   0.73330   Biso      1.000     C          0.10462300000000001           
         C19       1.0000    0.89210   0.61930   0.72730   Biso      1.000     C          -0.16337100000000002          
         C20       1.0000    0.00550   0.68270   0.72600   Biso      1.000     C          0.07899099999999999           
         C21       1.0000    0.38140   0.52750   0.70050   Biso      1.000     C          0.057451999999999996          
         C22       1.0000    0.49500   0.59100   0.69600   Biso      1.000     C          -0.168216           
         C23       1.0000    0.62470   0.57810   0.73510   Biso      1.000     C          0.09512000000000001           
         C24       1.0000    0.51470   0.44240   0.77880   Biso      1.000     C          0.060644  
         C25       1.0000    0.36200   0.69530   0.05300   Biso      1.000     C          0.64504   
         C26       1.0000    0.38200   0.60750   0.01510   Biso      1.000     C          -0.273683           
         C27       1.0000    0.26320   0.71590   0.86030   Biso      1.000     C          0.661466  
         C28       1.0000    0.66940   0.86930   0.38020   Biso      1.000     C          -0.266831           
         C29       1.0000    0.33060   0.63070   0.88020   Biso      1.000     C          -0.266831           
         C30       1.0000    0.66940   0.36930   0.11980   Biso      1.000     C          -0.266827           
         C31       1.0000    0.61800   0.39250   0.98490   Biso      1.000     C          -0.27368000000000003          
         C32       1.0000    0.84550   0.29210   0.76180   Biso      1.000     C          0.081581  
         C33       1.0000    0.72580   0.23320   0.76090   Biso      1.000     C          -0.166699           
         C34       1.0000    0.74910   0.14440   0.76670   Biso      1.000     C          0.10462300000000001           
         C35       1.0000    0.89210   0.11930   0.77270   Biso      1.000     C          -0.16337100000000002          
         C36       1.0000    0.00550   0.18270   0.77400   Biso      1.000     C          0.078997  
         C37       1.0000    0.38140   0.02750   0.79950   Biso      1.000     C          0.057458  
         C38       1.0000    0.49500   0.09100   0.80400   Biso      1.000     C          -0.168211           
         C39       1.0000    0.62470   0.07810   0.76490   Biso      1.000     C          0.095123  
         C40       1.0000    0.63410   0.00160   0.72320   Biso      1.000     C          -0.199879           
         C41       1.0000    0.51470   0.94240   0.72120   Biso      1.000     C          0.06065   
         C42       1.0000    0.36200   0.19530   0.44700   Biso      1.000     C          0.645031  
         C43       1.0000    0.38200   0.10750   0.48490   Biso      1.000     C          -0.27368000000000003          
         C44       1.0000    0.73680   0.28410   0.13970   Biso      1.000     C          0.661459  
         C45       1.0000    0.26320   0.21590   0.63970   Biso      1.000     C          0.661456  
         C46       1.0000    0.22670   0.99910   0.55600   Biso      1.000     C          -0.44553000000000004          
         C47       1.0000    0.15450   0.20790   0.26180   Biso      1.000     C          0.081566  
         C48       1.0000    0.27420   0.26680   0.26090   Biso      1.000     C          -0.166711           
         C49       1.0000    0.25090   0.35560   0.26670   Biso      1.000     C          0.104624  
         C50       1.0000    0.10790   0.38070   0.27270   Biso      1.000     C          -0.163373           
         C51       1.0000    0.99450   0.31730   0.27400   Biso      1.000     C          0.07898200000000001           
         C52       1.0000    0.61860   0.47250   0.29950   Biso      1.000     C          0.057442999999999994          
         C53       1.0000    0.50500   0.40900   0.30400   Biso      1.000     C          -0.168223           
         C54       1.0000    0.37530   0.42190   0.26490   Biso      1.000     C          0.09511599999999999           
         C55       1.0000    0.36590   0.49840   0.22320   Biso      1.000     C          -0.19988399999999998          
         C56       1.0000    0.48530   0.55760   0.22120   Biso      1.000     C          0.060629999999999996          
         C57       1.0000    0.63800   0.30470   0.94700   Biso      1.000     C          0.6450319999999999  
         C58       1.0000    0.33060   0.13070   0.61980   Biso      1.000     C          -0.266829           
         C59       1.0000    0.22670   0.49910   0.94400   Biso      1.000     C          -0.445528           
         C60       1.0000    0.63410   0.50160   0.77680   Biso      1.000     C          -0.199881           
         Cd1       1.0000    0.17945   0.36591   0.75685   Biso      1.000     Cd          0.924106  
         Cd2       1.0000    0.82055   0.13409   0.25685   Biso      1.000     Cd          0.924104  
         Cd3       1.0000    0.82055   0.63409   0.24315   Biso      1.000     Cd          0.924106  
         Cd4       1.0000    0.17945   0.86591   0.74315   Biso      1.000     Cd          0.9241090000000001  
         H1        1.0000    0.52190   0.89060   0.69230   Biso      1.000     H          0.091279  
         H2        1.0000    0.78260   0.02890   0.49450   Biso      1.000     H          0.15738   
         H3        1.0000    0.70040   0.03180   0.41400   Biso      1.000     H          0.129216  
         H4        1.0000    0.69070   0.91170   0.33880   Biso      1.000     H          0.135497  
         H5        1.0000    0.56160   0.85920   0.38350   Biso      1.000     H          0.135733  
         H6        1.0000    0.51690   0.89410   0.49500   Biso      1.000     H          0.117156  
         H7        1.0000    0.47810   0.10940   0.30770   Biso      1.000     H          0.091283  
         H8        1.0000    0.82910   0.85250   0.74220   Biso      1.000     H          0.08444   
         H9        1.0000    0.27850   0.00970   0.30350   Biso      1.000     H          0.13408299999999998           
         H10       1.0000    0.51550   0.85770   0.16680   Biso      1.000     H          0.142548  
         H11       1.0000    0.70610   0.96400   0.17290   Biso      1.000     H          0.093653  
         H12       1.0000    0.63200   0.93960   0.55330   Biso      1.000     H          0.136655  
         H13       1.0000    0.36800   0.06040   0.44670   Biso      1.000     H          0.136654  
         H14       1.0000    0.10310   0.66490   0.72070   Biso      1.000     H          0.08484   
         H15       1.0000    0.89690   0.83510   0.22070   Biso      1.000     H          0.08484   
         H16       1.0000    0.29390   0.53600   0.67290   Biso      1.000     H          0.09364700000000001           
         H17       1.0000    0.48450   0.64230   0.66680   Biso      1.000     H          0.142547  
         H18       1.0000    0.72150   0.49030   0.80350   Biso      1.000     H          0.134081  
         H19       1.0000    0.52190   0.39060   0.80770   Biso      1.000     H          0.091281  
         H20       1.0000    0.36800   0.56040   0.05330   Biso      1.000     H          0.136655  
         H21       1.0000    0.48310   0.60590   0.99500   Biso      1.000     H          0.117156  
         H22       1.0000    0.43840   0.64080   0.88350   Biso      1.000     H          0.135733  
         H23       1.0000    0.30930   0.58830   0.83880   Biso      1.000     H          0.135497  
         H24       1.0000    0.29960   0.46820   0.91400   Biso      1.000     H          0.129216  
         H25       1.0000    0.21740   0.47110   0.99450   Biso      1.000     H          0.157378  
         H26       1.0000    0.91200   0.55940   0.72420   Biso      1.000     H          0.12952   
         H27       1.0000    0.08800   0.94060   0.22420   Biso      1.000     H          0.129519  
         H28       1.0000    0.62920   0.75280   0.74350   Biso      1.000     H          0.128853  
         H29       1.0000    0.17090   0.64750   0.24220   Biso      1.000     H          0.08444   
         H30       1.0000    0.72150   0.99030   0.69650   Biso      1.000     H          0.134079  
         H31       1.0000    0.48450   0.14230   0.83320   Biso      1.000     H          0.142543  
         H32       1.0000    0.29390   0.03600   0.82710   Biso      1.000     H          0.093641  
         H33       1.0000    0.10310   0.16490   0.77930   Biso      1.000     H          0.084838  
         H34       1.0000    0.37080   0.74720   0.24350   Biso      1.000     H          0.128853  
         H35       1.0000    0.91200   0.05940   0.77580   Biso      1.000     H          0.129518  
         H36       1.0000    0.82910   0.35250   0.75780   Biso      1.000     H          0.084436  
         H37       1.0000    0.48310   0.10590   0.50500   Biso      1.000     H          0.117155  
         H38       1.0000    0.43840   0.14080   0.61650   Biso      1.000     H          0.135732  
         H39       1.0000    0.30930   0.08830   0.66120   Biso      1.000     H          0.135497  
         H40       1.0000    0.29960   0.96820   0.58600   Biso      1.000     H          0.129216  
         H41       1.0000    0.21740   0.97110   0.50550   Biso      1.000     H          0.157379  
         H42       1.0000    0.17090   0.14750   0.25780   Biso      1.000     H          0.084441  
         H43       1.0000    0.62920   0.25280   0.75650   Biso      1.000     H          0.12885   
         H44       1.0000    0.69070   0.41170   0.16120   Biso      1.000     H          0.135497  
         H45       1.0000    0.08800   0.44060   0.27580   Biso      1.000     H          0.129524  
         H46       1.0000    0.89690   0.33510   0.27930   Biso      1.000     H          0.084844  
         H47       1.0000    0.70610   0.46400   0.32710   Biso      1.000     H          0.093653  
         H48       1.0000    0.51550   0.35770   0.33320   Biso      1.000     H          0.142552  
         H49       1.0000    0.27850   0.50970   0.19650   Biso      1.000     H          0.13408599999999998           
         H50       1.0000    0.47810   0.60940   0.19230   Biso      1.000     H          0.091286  
         H51       1.0000    0.63200   0.43960   0.94670   Biso      1.000     H          0.136655  
         H52       1.0000    0.78260   0.52890   0.00550   Biso      1.000     H          0.15738   
         H53       1.0000    0.70040   0.53180   0.08600   Biso      1.000     H          0.129215  
         H54       1.0000    0.37080   0.24720   0.25650   Biso      1.000     H          0.128857  
         H55       1.0000    0.56160   0.35920   0.11650   Biso      1.000     H          0.135733  
         H56       1.0000    0.51690   0.39410   0.00500   Biso      1.000     H          0.117155  
         N1        1.0000    0.72420   0.90745   0.45268   Biso      1.000     N          -0.01741  
         N2        1.0000    0.72420   0.40745   0.04732   Biso      1.000     N          -0.017412           
         N3        1.0000    0.01600   0.73220   0.23190   Biso      1.000     N          -0.266924           
         N4        1.0000    0.98400   0.76780   0.73190   Biso      1.000     N          -0.26692899999999997          
         N5        1.0000    0.61080   0.54520   0.25821   Biso      1.000     N          -0.265236           
         N6        1.0000    0.01600   0.23220   0.26810   Biso      1.000     N          -0.266917           
         N7        1.0000    0.61080   0.04520   0.24179   Biso      1.000     N          -0.265246           
         N8        1.0000    0.38920   0.45480   0.74179   Biso      1.000     N          -0.26525  
         N9        1.0000    0.38920   0.95480   0.75821   Biso      1.000     N          -0.265261           
         N10       1.0000    0.98400   0.26780   0.76810   Biso      1.000     N          -0.266936           
         N11       1.0000    0.27580   0.09255   0.54732   Biso      1.000     N          -0.017418           
         N12       1.0000    0.27580   0.59255   0.95268   Biso      1.000     N          -0.017404           
         O1        1.0000    0.84510   0.26091   0.09997   Biso      1.000     O          -0.653486           
         O2        1.0000    0.01460   0.41792   0.08768   Biso      1.000     O          -0.813133           
         O3        1.0000    0.04910   0.58080   0.06978   Biso      1.000     O          -0.8201719999999999           
         O4        1.0000    0.92900   0.52150   0.18867   Biso      1.000     O          -0.763966           
         O5        1.0000    0.53370   0.76920   0.58834   Biso      1.000     O          -0.587579           
         O6        1.0000    0.68670   0.74235   0.30440   Biso      1.000     O          -0.563958           
         O7        1.0000    0.76420   0.77391   0.54750   Biso      1.000     O          -0.635636           
         O8        1.0000    0.95090   0.91920   0.56978   Biso      1.000     O          -0.820163           
         O9        1.0000    0.15490   0.23909   0.59997   Biso      1.000     O          -0.653473           
         O10       1.0000    0.98540   0.08208   0.58768   Biso      1.000     O          -0.8131149999999999           
         O11       1.0000    0.07100   0.97850   0.68867   Biso      1.000     O          -0.7639699999999999           
         O12       1.0000    0.53370   0.26920   0.91166   Biso      1.000     O          -0.587584           
         O13       1.0000    0.76420   0.27391   0.95250   Biso      1.000     O          -0.6356310000000001           
         O14       1.0000    0.84510   0.76091   0.40003   Biso      1.000     O          -0.653486           
         O15       1.0000    0.68670   0.24235   0.19560   Biso      1.000     O          -0.5639569999999999           
         O16       1.0000    0.31330   0.25765   0.69560   Biso      1.000     O          -0.563963           
         O17       1.0000    0.01460   0.91792   0.41232   Biso      1.000     O          -0.813125           
         O18       1.0000    0.46630   0.23080   0.41166   Biso      1.000     O          -0.5875779999999999           
         O19       1.0000    0.92900   0.02150   0.31133   Biso      1.000     O          -0.7639670000000001           
         O20       1.0000    0.04910   0.08080   0.43022   Biso      1.000     O          -0.820153           
         O21       1.0000    0.07100   0.47850   0.81133   Biso      1.000     O          -0.7639699999999999           
         O22       1.0000    0.95090   0.41920   0.93022   Biso      1.000     O          -0.8201639999999999           
         O23       1.0000    0.98540   0.58208   0.91232   Biso      1.000     O          -0.813131           
         O24       1.0000    0.23580   0.22609   0.45250   Biso      1.000     O          -0.635625           
         O25       1.0000    0.31330   0.75765   0.80440   Biso      1.000     O          -0.563956           
         O26       1.0000    0.23580   0.72609   0.04750   Biso      1.000     O          -0.635646           
         O27       1.0000    0.46630   0.73080   0.08834   Biso      1.000     O          -0.5875739999999999           
         O28       1.0000    0.15490   0.73909   0.90003   Biso      1.000     O          -0.6534949999999999           
         P1        1.0000    0.04823   0.99277   0.60470   Biso      1.000     P          1.3403129999999999  
         P2        1.0000    0.95177   0.50723   0.10470   Biso      1.000     P          1.340323  
         P3        1.0000    0.95177   0.00723   0.39530   Biso      1.000     P          1.3403120000000002  
         P4        1.0000    0.04823   0.49277   0.89530   Biso      1.000     P          1.3403209999999999  
         V1        1.0000    0.07003   0.16758   0.51176   Biso      1.000     V          1.321519  
         V2        1.0000    0.92997   0.33242   0.01176   Biso      1.000     V          1.3215649999999999  
         V3        1.0000    0.92997   0.83242   0.48824   Biso      1.000     V          1.321532  
         V4        1.0000    0.07003   0.66758   0.98824   Biso      1.000     V          1.3215649999999999 