
##########################################################################
#               Crystallographic Information Format file
#               Produced by PyCifRW module
#
#  This is a CIF file.  CIF has been adopted by the International
#  Union of Crystallography as the standard for data archiving and
#  transmission.
#
#  For information on this file format, follow the CIF links at
#  http://www.iucr.org
##########################################################################

data_image0

_cell_length_a                          13.0245
_cell_length_b                          13.0245
_cell_length_c                          16.7901
_cell_angle_alpha                       111.502
_cell_angle_beta                        111.502
_cell_angle_gamma                       93.1514
_symmetry_space_group_name_H-M          'P 1'
_symmetry_int_tables_number             1
loop_
  _symmetry_equiv_pos_as_xyz
         'x, y, z' 
loop_
  _atom_site_label
  _atom_site_occupancy
  _atom_site_fract_x
  _atom_site_fract_y
  _atom_site_fract_z
  _atom_site_thermal_displace_type
  _atom_site_B_iso_or_equiv
  _atom_site_type_symbol
  _atom_site_charge
         C1        1.0000    0.15230   0.79850   0.29300   Biso      1.000     C          0.686713  
         C2        1.0000    0.37930   0.09950   0.65340   Biso      1.000     C          -0.048223           
         C3        1.0000    0.88390   0.73530   0.96720   Biso      1.000     C          0.660667  
         C4        1.0000    0.78400   0.52120   0.13280   Biso      1.000     C          0.655257  
         C5        1.0000    0.83750   0.62910   0.05220   Biso      1.000     C          -0.104771           
         C6        1.0000    0.91350   0.70970   0.05360   Biso      1.000     C          -0.032803           
         C7        1.0000    0.01350   0.76530   0.13140   Biso      1.000     C          -0.098066           
         C8        1.0000    0.04160   0.74140   0.20960   Biso      1.000     C          -0.042479           
         C9        1.0000    0.96490   0.66130   0.21020   Biso      1.000     C          -0.105459           
         C10       1.0000    0.86210   0.60330   0.13120   Biso      1.000     C          -0.045411           
         C11       1.0000    0.60520   0.73940   0.98620   Biso      1.000     C          0.663417  
         C12       1.0000    0.42780   0.20300   0.72880   Biso      1.000     C          -0.110117           
         C13       1.0000    0.65370   0.01010   0.30540   Biso      1.000     C          0.691519  
         C14       1.0000    0.74760   0.92540   0.07280   Biso      1.000     C          -0.11069000000000001          
         C15       1.0000    0.66290   0.84870   0.07020   Biso      1.000     C          -0.028825           
         C16       1.0000    0.63740   0.87520   0.14600   Biso      1.000     C          -0.120571           
         C17       1.0000    0.77580   0.05100   0.22880   Biso      1.000     C          -0.10989600000000001          
         C18       1.0000    0.80390   0.02410   0.15340   Biso      1.000     C          -0.048483           
         C19       1.0000    0.48190   0.83330   0.46720   Biso      1.000     C          0.658964  
         C20       1.0000    0.74450   0.89070   0.79300   Biso      1.000     C          0.687437  
         C21       1.0000    0.86160   0.09880   0.63280   Biso      1.000     C          0.653373  
         C22       1.0000    0.67310   0.96470   0.55220   Biso      1.000     C          -0.10253  
         C23       1.0000    0.59390   0.89010   0.55360   Biso      1.000     C          -0.033041           
         C24       1.0000    0.89620   0.10500   0.15680   Biso      1.000     C          0.662512  
         C25       1.0000    0.61610   0.86790   0.63140   Biso      1.000     C          -0.097089           
         C26       1.0000    0.49850   0.28630   0.72640   Biso      1.000     C          -0.043107           
         C27       1.0000    0.47150   0.15730   0.57020   Biso      1.000     C          -0.024215           
         C28       1.0000    0.98940   0.35520   0.48620   Biso      1.000     C          0.663417  
         C29       1.0000    0.26010   0.40370   0.80540   Biso      1.000     C          0.691519  
         C30       1.0000    0.35500   0.64620   0.65680   Biso      1.000     C          0.662512  
         C31       1.0000    0.17540   0.49760   0.57280   Biso      1.000     C          -0.11069000000000001          
         C32       1.0000    0.09870   0.41290   0.57020   Biso      1.000     C          -0.028825           
         C33       1.0000    0.12520   0.38740   0.64600   Biso      1.000     C          -0.120571           
         C34       1.0000    0.22790   0.44010   0.72640   Biso      1.000     C          -0.045765           
         C35       1.0000    0.30100   0.52580   0.72880   Biso      1.000     C          -0.10989700000000001          
         C36       1.0000    0.27410   0.55390   0.65340   Biso      1.000     C          -0.048484           
         C37       1.0000    0.08330   0.23190   0.96720   Biso      1.000     C          0.658964  
         C38       1.0000    0.52080   0.25860   0.64600   Biso      1.000     C          -0.125246           
         C39       1.0000    0.14070   0.49450   0.29300   Biso      1.000     C          0.687438  
         C40       1.0000    0.21470   0.42310   0.05220   Biso      1.000     C          -0.10253  
         C41       1.0000    0.14010   0.34390   0.05360   Biso      1.000     C          -0.033041           
         C42       1.0000    0.11790   0.36610   0.13140   Biso      1.000     C          -0.097089           
         C43       1.0000    0.16800   0.46820   0.20960   Biso      1.000     C          -0.043233           
         C44       1.0000    0.24530   0.54890   0.21020   Biso      1.000     C          -0.106722           
         C45       1.0000    0.26910   0.52790   0.13120   Biso      1.000     C          -0.044962           
         C46       1.0000    0.49680   0.13100   0.48620   Biso      1.000     C          0.662654  
         C47       1.0000    0.54530   0.40170   0.80540   Biso      1.000     C          0.690674  
         C48       1.0000    0.30180   0.01060   0.65680   Biso      1.000     C          0.66094   
         C49       1.0000    0.39740   0.07520   0.57280   Biso      1.000     C          -0.111918           
         C50       1.0000    0.34880   0.61160   0.13280   Biso      1.000     C          0.653374  
         C51       1.0000    0.71820   0.91800   0.70960   Biso      1.000     C          -0.043233           
         C52       1.0000    0.69010   0.97790   0.22640   Biso      1.000     C          -0.045765           
         C53       1.0000    0.77790   0.01910   0.63120   Biso      1.000     C          -0.044962           
         C54       1.0000    0.79890   0.99530   0.71020   Biso      1.000     C          -0.106722           
         C55       1.0000    0.85330   0.61210   0.63120   Biso      1.000     C          -0.045412           
         C56       1.0000    0.91130   0.71490   0.71020   Biso      1.000     C          -0.105459           
         C57       1.0000    0.99140   0.79160   0.70960   Biso      1.000     C          -0.042479           
         C58       1.0000    0.01530   0.76350   0.63140   Biso      1.000     C          -0.098071           
         C59       1.0000    0.87910   0.58750   0.55220   Biso      1.000     C          -0.104771           
         C60       1.0000    0.77120   0.53400   0.63280   Biso      1.000     C          0.655257  
         C61       1.0000    0.04850   0.90230   0.79300   Biso      1.000     C          0.686713  
         C62       1.0000    0.98530   0.63390   0.46720   Biso      1.000     C          0.660667  
         C63       1.0000    0.95970   0.66350   0.55360   Biso      1.000     C          -0.032798           
         C64       1.0000    0.45300   0.17780   0.22880   Biso      1.000     C          -0.110123           
         C65       1.0000    0.53630   0.24850   0.22640   Biso      1.000     C          -0.043105000000000004         
         C66       1.0000    0.50860   0.27080   0.14600   Biso      1.000     C          -0.125255           
         C67       1.0000    0.40730   0.22150   0.07020   Biso      1.000     C          -0.024206000000000002         
         C68       1.0000    0.32520   0.14740   0.07280   Biso      1.000     C          -0.11192  
         C69       1.0000    0.26060   0.05180   0.15680   Biso      1.000     C          0.66094   
         C70       1.0000    0.65170   0.29530   0.30540   Biso      1.000     C          0.690674  
         C71       1.0000    0.38100   0.24680   0.98620   Biso      1.000     C          0.6626529999999999  
         C72       1.0000    0.34950   0.12930   0.15340   Biso      1.000     C          -0.048216           
         H1        1.0000    0.89670   0.73230   0.76340   Biso      1.000     H          0.12412999999999999           
         H2        1.0000    0.58350   0.82390   0.14460   Biso      1.000     H          0.11225   
         H3        1.0000    0.65700   0.97900   0.49900   Biso      1.000     H          0.12593   
         H4        1.0000    0.56180   0.81860   0.63160   Biso      1.000     H          0.12129000000000001           
         H5        1.0000    0.86670   0.03110   0.76340   Biso      1.000     H          0.124618  
         H6        1.0000    0.84200   0.52000   0.49900   Biso      1.000     H          0.126593  
         H7        1.0000    0.56110   0.32070   0.14460   Biso      1.000     H          0.113344  
         H8        1.0000    0.46810   0.16370   0.28200   Biso      1.000     H          0.12306199999999999           
         H9        1.0000    0.06980   0.81300   0.63160   Biso      1.000     H          0.121395  
         H10       1.0000    0.76490   0.90930   0.02100   Biso      1.000     H          0.119871  
         H11       1.0000    0.25610   0.11170   0.02100   Biso      1.000     H          0.11984000000000002           
         H12       1.0000    0.98230   0.64670   0.26340   Biso      1.000     H          0.12412999999999999           
         H13       1.0000    0.81390   0.11830   0.28200   Biso      1.000     H          0.123597  
         H14       1.0000    0.77000   0.59200   0.99900   Biso      1.000     H          0.126593  
         H15       1.0000    0.41370   0.21810   0.78200   Biso      1.000     H          0.12306099999999999           
         H16       1.0000    0.57070   0.31110   0.64460   Biso      1.000     H          0.113344  
         H17       1.0000    0.36170   0.00610   0.52100   Biso      1.000     H          0.11984000000000002           
         H18       1.0000    0.28110   0.61670   0.26340   Biso      1.000     H          0.124618  
         H19       1.0000    0.06860   0.31180   0.13160   Biso      1.000     H          0.12129000000000001           
         H20       1.0000    0.22900   0.40700   0.99900   Biso      1.000     H          0.12593   
         H21       1.0000    0.36830   0.56390   0.78200   Biso      1.000     H          0.123597  
         H22       1.0000    0.07390   0.33350   0.64460   Biso      1.000     H          0.11225   
         H23       1.0000    0.15930   0.51490   0.52100   Biso      1.000     H          0.119871  
         H24       1.0000    0.06300   0.81980   0.13160   Biso      1.000     H          0.121395  
         O1        1.0000    0.27270   0.91270   0.59440   Biso      1.000     O          -0.626609           
         O2        1.0000    0.80140   0.67020   0.89200   Biso      1.000     O          -0.61702  
         O3        1.0000    0.94340   0.82080   0.97520   Biso      1.000     O          -0.647597           
         O4        1.0000    0.22690   0.84730   0.28060   Biso      1.000     O          -0.651142           
         O5        1.0000    0.60370   0.72990   0.90840   Biso      1.000     O          -0.603755           
         O6        1.0000    0.81900   0.48860   0.19900   Biso      1.000     O          -0.644799           
         O7        1.0000    0.68490   0.47850   0.06540   Biso      1.000     O          -0.6354479999999999           
         O8        1.0000    0.55560   0.66180   0.99780   Biso      1.000     O          -0.665602           
         O9        1.0000    0.27550   0.04310   0.72540   Biso      1.000     O          -0.616    
         O10       1.0000    0.71630   0.08970   0.37980   Biso      1.000     O          -0.609305           
         O11       1.0000    0.16430   0.79790   0.36880   Biso      1.000     O          -0.6247050000000001           
         O12       1.0000    0.58690   0.47650   0.79160   Biso      1.000     O          -0.658814           
         O13       1.0000    0.33970   0.46630   0.87980   Biso      1.000     O          -0.609305           
         O14       1.0000    0.42850   0.05470   0.40840   Biso      1.000     O          -0.603402           
         O15       1.0000    0.58600   0.19220   0.49780   Biso      1.000     O          -0.666403           
         O16       1.0000    0.38050   0.58690   0.06540   Biso      1.000     O          -0.634927           
         O17       1.0000    0.38000   0.71040   0.19900   Biso      1.000     O          -0.6441180000000001           
         O18       1.0000    0.20470   0.31510   0.79160   Biso      1.000     O          -0.659339           
         O19       1.0000    0.44990   0.68230   0.72540   Biso      1.000     O          -0.616665           
         O20       1.0000    0.32170   0.68170   0.59440   Biso      1.000     O          -0.627395           
         O21       1.0000    0.09060   0.22180   0.89200   Biso      1.000     O          -0.616464           
         O22       1.0000    0.03180   0.15440   0.97520   Biso      1.000     O          -0.646914           
         O23       1.0000    0.05370   0.43330   0.28060   Biso      1.000     O          -0.651798           
         O24       1.0000    0.56510   0.95470   0.29160   Biso      1.000     O          -0.659339           
         O25       1.0000    0.20450   0.57090   0.36880   Biso      1.000     O          -0.624577           
         O26       1.0000    0.54010   0.41350   0.87980   Biso      1.000     O          -0.609632           
         O27       1.0000    0.93230   0.19990   0.22540   Biso      1.000     O          -0.616665           
         O28       1.0000    0.91180   0.30560   0.49780   Biso      1.000     O          -0.665602           
         O29       1.0000    0.47180   0.84060   0.39200   Biso      1.000     O          -0.616464           
         O30       1.0000    0.97990   0.35370   0.40840   Biso      1.000     O          -0.603755           
         O31       1.0000    0.72850   0.43490   0.56540   Biso      1.000     O          -0.6354479999999999           
         O32       1.0000    0.73860   0.56900   0.69900   Biso      1.000     O          -0.644799           
         O33       1.0000    0.04790   0.91430   0.86880   Biso      1.000     O          -0.6247050000000001           
         O34       1.0000    0.09730   0.97690   0.78060   Biso      1.000     O          -0.651142           
         O35       1.0000    0.93170   0.07170   0.09440   Biso      1.000     O          -0.627395           
         O36       1.0000    0.92020   0.55140   0.39200   Biso      1.000     O          -0.61702  
         O37       1.0000    0.16270   0.02270   0.09440   Biso      1.000     O          -0.626609           
         O38       1.0000    0.29310   0.02550   0.22540   Biso      1.000     O          -0.616    
         O39       1.0000    0.07080   0.69340   0.47520   Biso      1.000     O          -0.647597           
         O40       1.0000    0.66350   0.29010   0.37980   Biso      1.000     O          -0.609632           
         O41       1.0000    0.30470   0.17850   0.90840   Biso      1.000     O          -0.603402           
         O42       1.0000    0.44220   0.33600   0.99780   Biso      1.000     O          -0.666403           
         O43       1.0000    0.83690   0.13050   0.56540   Biso      1.000     O          -0.634927           
         O44       1.0000    0.96040   0.13000   0.69900   Biso      1.000     O          -0.6441180000000001           
         O45       1.0000    0.82090   0.95450   0.86880   Biso      1.000     O          -0.624577           
         O46       1.0000    0.68330   0.80370   0.78060   Biso      1.000     O          -0.651798           
         O47       1.0000    0.40440   0.78180   0.47520   Biso      1.000     O          -0.646915           
         O48       1.0000    0.72650   0.33690   0.29160   Biso      1.000     O          -0.658814           
         Y1        1.0000    0.14617   0.13829   0.77170   Biso      1.000     Y          1.886609  
         Y2        1.0000    0.88341   0.37553   0.27170   Biso      1.000     Y          1.886571  
         Y3        1.0000    0.38829   0.89617   0.27170   Biso      1.000     Y          1.886609  
         Y4        1.0000    0.50383   0.50383   0.00766   Biso      1.000     Y          1.8696970000000002  
         Y5        1.0000    0.24196   0.74196   0.48392   Biso      1.000     Y          1.8531330000000001  
         Y6        1.0000    0.75383   0.25383   0.50766   Biso      1.000     Y          1.8696970000000002  
         Y7        1.0000    0.99196   0.99196   0.98392   Biso      1.000     Y          1.8531330000000001  
         Y8        1.0000    0.62553   0.63341   0.77170   Biso      1.000     Y          1.886571 