
##########################################################################
#               Crystallographic Information Format file
#               Produced by PyCifRW module
#
#  This is a CIF file.  CIF has been adopted by the International
#  Union of Crystallography as the standard for data archiving and
#  transmission.
#
#  For information on this file format, follow the CIF links at
#  http://www.iucr.org
##########################################################################

data_image0

_cell_length_a                          8.8326
_cell_length_b                          10.159
_cell_length_c                          13.979
_cell_angle_alpha                       90
_cell_angle_beta                        90
_cell_angle_gamma                       90
_symmetry_space_group_name_H-M          'P 1'
_symmetry_int_tables_number             1
loop_
  _symmetry_equiv_pos_as_xyz
         'x, y, z' 
loop_
  _atom_site_label
  _atom_site_occupancy
  _atom_site_fract_x
  _atom_site_fract_y
  _atom_site_fract_z
  _atom_site_thermal_displace_type
  _atom_site_B_iso_or_equiv
  _atom_site_type_symbol
  _atom_site_charge
         C1        1.0000    0.57350   0.24670   0.24960   Biso      1.000     C          -0.040517000000000004         
         C2        1.0000    0.07350   0.25330   0.74960   Biso      1.000     C          -0.040516           
         C3        1.0000    0.39390   0.36580   0.90860   Biso      1.000     C          0.675715  
         C4        1.0000    0.38660   0.24960   0.74900   Biso      1.000     C          -0.11551700000000001          
         C5        1.0000    0.15020   0.30620   0.82680   Biso      1.000     C          -0.11433399999999999          
         C6        1.0000    0.90200   0.25900   0.74420   Biso      1.000     C          0.664267  
         C7        1.0000    0.89390   0.36370   0.09210   Biso      1.000     C          0.677802  
         C8        1.0000    0.80880   0.30410   0.17330   Biso      1.000     C          -0.028713           
         C9        1.0000    0.65090   0.30480   0.17300   Biso      1.000     C          -0.116585           
         C10       1.0000    0.89390   0.13420   0.40860   Biso      1.000     C          0.675715  
         C11       1.0000    0.80760   0.19680   0.32620   Biso      1.000     C          -0.031445999999999995         
         C12       1.0000    0.15090   0.19520   0.67300   Biso      1.000     C          -0.116585           
         C13       1.0000    0.88660   0.25040   0.24900   Biso      1.000     C          -0.115515           
         C14       1.0000    0.40200   0.24100   0.24420   Biso      1.000     C          0.664267  
         C15       1.0000    0.60610   0.86370   0.40790   Biso      1.000     C          0.677802  
         C16       1.0000    0.69120   0.80410   0.32670   Biso      1.000     C          -0.028713           
         C17       1.0000    0.84910   0.80480   0.32700   Biso      1.000     C          -0.116585           
         C18       1.0000    0.92650   0.74670   0.25040   Biso      1.000     C          -0.040517000000000004         
         C19       1.0000    0.60610   0.63420   0.09140   Biso      1.000     C          0.675715  
         C20       1.0000    0.69240   0.69680   0.17380   Biso      1.000     C          -0.031445999999999995         
         C21       1.0000    0.61340   0.75040   0.25100   Biso      1.000     C          -0.115515           
         C22       1.0000    0.84980   0.69380   0.17320   Biso      1.000     C          -0.11433199999999999          
         C23       1.0000    0.09800   0.74100   0.25580   Biso      1.000     C          0.664267  
         C24       1.0000    0.65020   0.19380   0.32680   Biso      1.000     C          -0.11433199999999999          
         C25       1.0000    0.30880   0.19590   0.67330   Biso      1.000     C          -0.028711           
         C26       1.0000    0.30760   0.30320   0.82620   Biso      1.000     C          -0.031444           
         C27       1.0000    0.59800   0.75900   0.75580   Biso      1.000     C          0.664267  
         C28       1.0000    0.34980   0.80620   0.67320   Biso      1.000     C          -0.11433800000000001          
         C29       1.0000    0.11340   0.74960   0.75100   Biso      1.000     C          -0.11551700000000001          
         C30       1.0000    0.19240   0.80320   0.67380   Biso      1.000     C          -0.031444           
         C31       1.0000    0.10610   0.86580   0.59140   Biso      1.000     C          0.675715  
         C32       1.0000    0.42650   0.75330   0.75040   Biso      1.000     C          -0.040513           
         C33       1.0000    0.34910   0.69520   0.82700   Biso      1.000     C          -0.116586           
         C34       1.0000    0.19120   0.69590   0.82670   Biso      1.000     C          -0.028711           
         C35       1.0000    0.10610   0.63630   0.90790   Biso      1.000     C          0.677802  
         C36       1.0000    0.39390   0.13630   0.59210   Biso      1.000     C          0.6778029999999999  
         H1        1.0000    0.40210   0.65680   0.87720   Biso      1.000     H          0.12291400000000001           
         H2        1.0000    0.00810   0.75030   0.75120   Biso      1.000     H          0.12336400000000002           
         H3        1.0000    0.40230   0.84280   0.62210   Biso      1.000     H          0.126359  
         H4        1.0000    0.09790   0.15680   0.62280   Biso      1.000     H          0.12291400000000001           
         H5        1.0000    0.49190   0.25030   0.74880   Biso      1.000     H          0.12336400000000002           
         H6        1.0000    0.59790   0.34320   0.12280   Biso      1.000     H          0.12291400000000001           
         H7        1.0000    0.09770   0.34280   0.87790   Biso      1.000     H          0.126358  
         H8        1.0000    0.59770   0.15720   0.37790   Biso      1.000     H          0.126358  
         H9        1.0000    0.90210   0.84320   0.37720   Biso      1.000     H          0.12291400000000001           
         H10       1.0000    0.50810   0.74970   0.25120   Biso      1.000     H          0.12336400000000002           
         H11       1.0000    0.90230   0.65720   0.12210   Biso      1.000     H          0.126358  
         H12       1.0000    0.99190   0.24970   0.24880   Biso      1.000     H          0.12336400000000002           
         O1        1.0000    0.83550   0.32520   0.80780   Biso      1.000     O          -0.620363           
         O2        1.0000    0.02730   0.39750   0.10630   Biso      1.000     O          -0.6502   
         O3        1.0000    0.33430   0.32550   0.19180   Biso      1.000     O          -0.634533           
         O4        1.0000    0.02730   0.10120   0.39350   Biso      1.000     O          -0.651018           
         O5        1.0000    0.82600   0.37800   0.01390   Biso      1.000     O          -0.630474           
         O6        1.0000    0.67400   0.87800   0.48610   Biso      1.000     O          -0.630474           
         O7        1.0000    0.33550   0.17480   0.30780   Biso      1.000     O          -0.620363           
         O8        1.0000    0.47270   0.60120   0.10650   Biso      1.000     O          -0.651018           
         O9        1.0000    0.16570   0.82550   0.30820   Biso      1.000     O          -0.634533           
         O10       1.0000    0.32600   0.37790   0.98570   Biso      1.000     O          -0.6223479999999999           
         O11       1.0000    0.47270   0.89750   0.39370   Biso      1.000     O          -0.6502   
         O12       1.0000    0.82600   0.12210   0.48570   Biso      1.000     O          -0.6223479999999999           
         O13       1.0000    0.32600   0.12200   0.51390   Biso      1.000     O          -0.630474           
         O14       1.0000    0.16450   0.67480   0.19220   Biso      1.000     O          -0.620363           
         O15       1.0000    0.83430   0.17450   0.69180   Biso      1.000     O          -0.634533           
         O16       1.0000    0.52730   0.10250   0.60630   Biso      1.000     O          -0.6502   
         O17       1.0000    0.66450   0.82520   0.69220   Biso      1.000     O          -0.620363           
         O18       1.0000    0.17400   0.87790   0.51430   Biso      1.000     O          -0.6223479999999999           
         O19       1.0000    0.17400   0.62200   0.98610   Biso      1.000     O          -0.630474           
         O20       1.0000    0.97270   0.89880   0.60650   Biso      1.000     O          -0.651018           
         O21       1.0000    0.66570   0.67450   0.80820   Biso      1.000     O          -0.634533           
         O22       1.0000    0.97270   0.60250   0.89370   Biso      1.000     O          -0.6502   
         O23       1.0000    0.67400   0.62210   0.01430   Biso      1.000     O          -0.6223479999999999           
         O24       1.0000    0.52730   0.39880   0.89350   Biso      1.000     O          -0.651018           
         Y1        1.0000    0.24989   0.00007   0.38679   Biso      1.000     Y          1.865623  
         Y2        1.0000    0.25011   0.50007   0.11321   Biso      1.000     Y          1.865623  
         Y3        1.0000    0.75011   0.99993   0.61321   Biso      1.000     Y          1.8656240000000002  
         Y4        1.0000    0.74989   0.49993   0.88679   Biso      1.000     Y          1.865623 