
##########################################################################
#               Crystallographic Information Format file
#               Produced by PyCifRW module
#
#  This is a CIF file.  CIF has been adopted by the International
#  Union of Crystallography as the standard for data archiving and
#  transmission.
#
#  For information on this file format, follow the CIF links at
#  http://www.iucr.org
##########################################################################

data_image0

_cell_length_a                          9.003
_cell_length_b                          17.382
_cell_length_c                          17.057
_cell_angle_alpha                       90
_cell_angle_beta                        104.595
_cell_angle_gamma                       90
_symmetry_space_group_name_H-M          'P 1'
_symmetry_int_tables_number             1
loop_
  _symmetry_equiv_pos_as_xyz
         'x, y, z' 
loop_
  _atom_site_label
  _atom_site_occupancy
  _atom_site_fract_x
  _atom_site_fract_y
  _atom_site_fract_z
  _atom_site_thermal_displace_type
  _atom_site_B_iso_or_equiv
  _atom_site_type_symbol
  _atom_site_charge
         B1        1.0000    0.65540   0.35370   0.37060   Biso      1.000     B          0.505642  
         B2        1.0000    0.15540   0.14630   0.87060   Biso      1.000     B          0.505642  
         B3        1.0000    0.84460   0.85370   0.12940   Biso      1.000     B          0.505642  
         B4        1.0000    0.34460   0.64630   0.62940   Biso      1.000     B          0.505642  
         C1        1.0000    0.30720   0.83250   0.73020   Biso      1.000     C          -0.057633           
         C2        1.0000    0.74510   0.39500   0.52160   Biso      1.000     C          0.119165  
         C3        1.0000    0.70640   0.40790   0.23630   Biso      1.000     C          -0.081573           
         C4        1.0000    0.74300   0.03470   0.52630   Biso      1.000     C          -0.109219           
         C5        1.0000    0.39970   0.36230   0.41660   Biso      1.000     C          -0.086044           
         C6        1.0000    0.43610   0.17850   0.06940   Biso      1.000     C          -0.055429           
         C7        1.0000    0.37880   0.19860   0.99060   Biso      1.000     C          -0.079784           
         C8        1.0000    0.51320   0.22510   0.31080   Biso      1.000     C          0.137886  
         C9        1.0000    0.73330   0.96110   0.65270   Biso      1.000     C          0.563132  
         C10       1.0000    0.75250   0.23470   0.30330   Biso      1.000     C          -0.086185           
         C11       1.0000    0.81930   0.05690   0.46940   Biso      1.000     C          -0.155359           
         C12       1.0000    0.85800   0.45260   0.34720   Biso      1.000     C          0.114686  
         C13       1.0000    0.18920   0.54420   0.78290   Biso      1.000     C          -0.029289           
         C14       1.0000    0.42860   0.45140   0.33110   Biso      1.000     C          0.139271  
         C15       1.0000    0.57140   0.54860   0.66890   Biso      1.000     C          0.139271  
         C16       1.0000    0.69280   0.16750   0.26980   Biso      1.000     C          -0.057617           
         C17       1.0000    0.81330   0.98150   0.58840   Biso      1.000     C          -0.021598           
         C18       1.0000    0.45470   0.54830   0.08890   Biso      1.000     C          -0.186378           
         C19       1.0000    0.27690   0.41000   0.40120   Biso      1.000     C          -0.063623           
         C20       1.0000    0.81080   0.45580   0.21710   Biso      1.000     C          -0.029277           
         C21       1.0000    0.01320   0.27490   0.81080   Biso      1.000     C          0.137886  
         C22       1.0000    0.35800   0.04740   0.84720   Biso      1.000     C          0.114686  
         C23       1.0000    0.92860   0.04860   0.83110   Biso      1.000     C          0.139271  
         C24       1.0000    0.89970   0.13770   0.91660   Biso      1.000     C          -0.086044           
         C25       1.0000    0.20640   0.09210   0.73630   Biso      1.000     C          -0.081573           
         C26       1.0000    0.19280   0.33250   0.76980   Biso      1.000     C          -0.057633           
         C27       1.0000    0.24510   0.10500   0.02160   Biso      1.000     C          0.119164  
         C28       1.0000    0.31080   0.04420   0.71710   Biso      1.000     C          -0.029277           
         C29       1.0000    0.53430   0.52710   0.03020   Biso      1.000     C          0.076744  
         C30       1.0000    0.68070   0.55690   0.03060   Biso      1.000     C          -0.155361           
         C31       1.0000    0.23330   0.53890   0.15270   Biso      1.000     C          0.563132  
         C32       1.0000    0.95470   0.95170   0.58890   Biso      1.000     C          -0.186378           
         C33       1.0000    0.87880   0.30140   0.49060   Biso      1.000     C          -0.079796           
         C34       1.0000    0.93610   0.32150   0.56940   Biso      1.000     C          -0.055418           
         C35       1.0000    0.03430   0.97290   0.53020   Biso      1.000     C          0.076744  
         C36       1.0000    0.24300   0.46530   0.02630   Biso      1.000     C          -0.109219           
         C37       1.0000    0.31330   0.51850   0.08840   Biso      1.000     C          -0.021598           
         C38       1.0000    0.77690   0.09000   0.90120   Biso      1.000     C          -0.063623           
         C39       1.0000    0.31930   0.44310   0.96940   Biso      1.000     C          -0.155359           
         C40       1.0000    0.14200   0.54740   0.65280   Biso      1.000     C          0.114686  
         C41       1.0000    0.25250   0.26530   0.80330   Biso      1.000     C          -0.086169           
         C42       1.0000    0.25490   0.60500   0.47840   Biso      1.000     C          0.119164  
         C43       1.0000    0.98680   0.72510   0.18920   Biso      1.000     C          0.137886  
         C44       1.0000    0.46570   0.47290   0.96980   Biso      1.000     C          0.076744  
         C45       1.0000    0.79360   0.90790   0.26370   Biso      1.000     C          -0.081573           
         C46       1.0000    0.29360   0.59210   0.76370   Biso      1.000     C          -0.081561           
         C47       1.0000    0.75490   0.89500   0.97840   Biso      1.000     C          0.119164  
         C48       1.0000    0.72310   0.59000   0.59880   Biso      1.000     C          -0.063641           
         C49       1.0000    0.74750   0.73470   0.19670   Biso      1.000     C          -0.086185           
         C50       1.0000    0.04530   0.04830   0.41110   Biso      1.000     C          -0.186378           
         C51       1.0000    0.60030   0.63770   0.58340   Biso      1.000     C          -0.086026           
         C52       1.0000    0.68670   0.48150   0.91160   Biso      1.000     C          -0.021595           
         C53       1.0000    0.96570   0.02710   0.46980   Biso      1.000     C          0.076743  
         C54       1.0000    0.22310   0.91000   0.09880   Biso      1.000     C          -0.063641           
         C55       1.0000    0.64200   0.95260   0.15280   Biso      1.000     C          0.114686  
         C56       1.0000    0.75700   0.53470   0.97370   Biso      1.000     C          -0.109219           
         C57       1.0000    0.18670   0.01850   0.41160   Biso      1.000     C          -0.021596           
         C58       1.0000    0.25700   0.96530   0.47370   Biso      1.000     C          -0.10922  
         C59       1.0000    0.07140   0.95140   0.16890   Biso      1.000     C          0.139271  
         C60       1.0000    0.48680   0.77490   0.68920   Biso      1.000     C          0.137886  
         C61       1.0000    0.56390   0.82150   0.93060   Biso      1.000     C          -0.055429           
         C62       1.0000    0.06390   0.67850   0.43060   Biso      1.000     C          -0.055429           
         C63       1.0000    0.12120   0.69860   0.50940   Biso      1.000     C          -0.079784           
         C64       1.0000    0.80720   0.66750   0.23020   Biso      1.000     C          -0.057617           
         C65       1.0000    0.68920   0.95580   0.28290   Biso      1.000     C          -0.029277           
         C66       1.0000    0.62120   0.80140   0.00940   Biso      1.000     C          -0.079784           
         C67       1.0000    0.24750   0.76530   0.69670   Biso      1.000     C          -0.086169           
         C68       1.0000    0.76670   0.46110   0.84730   Biso      1.000     C          0.563131  
         C69       1.0000    0.26670   0.03890   0.34730   Biso      1.000     C          0.563131  
         C70       1.0000    0.18070   0.94310   0.53060   Biso      1.000     C          -0.155359           
         C71       1.0000    0.54530   0.45170   0.91110   Biso      1.000     C          -0.186379           
         C72       1.0000    0.10030   0.86230   0.08340   Biso      1.000     C          -0.086026           
         Cd1       1.0000    0.61562   0.93985   0.78525   Biso      1.000     Cd          0.74926   
         Cd2       1.0000    0.11562   0.56015   0.28525   Biso      1.000     Cd          0.74926   
         Cd3       1.0000    0.38438   0.06015   0.21475   Biso      1.000     Cd          0.74926   
         Cd4       1.0000    0.88438   0.43985   0.71475   Biso      1.000     Cd          0.74926   
         H1        1.0000    0.52940   0.51870   0.70470   Biso      1.000     H          0.099253  
         H2        1.0000    0.25380   0.86980   0.75340   Biso      1.000     H          0.116215  
         H3        1.0000    0.91740   0.26360   0.82200   Biso      1.000     H          0.099256  
         H4        1.0000    0.08290   0.73790   0.53770   Biso      1.000     H          0.122464  
         H5        1.0000    0.35380   0.24720   0.80770   Biso      1.000     H          0.127417  
         H6        1.0000    0.91550   0.18080   0.95190   Biso      1.000     H          0.127054  
         H7        1.0000    0.18270   0.53220   0.83630   Biso      1.000     H          0.124605  
         H8        1.0000    0.12650   0.11870   0.69920   Biso      1.000     H          0.128106  
         H9        1.0000    0.97790   0.70190   0.39450   Biso      1.000     H          0.112659  
         H10       1.0000    0.14620   0.74720   0.69230   Biso      1.000     H          0.127417  
         H11       1.0000    0.85610   0.55470   0.97580   Biso      1.000     H          0.124213  
         H12       1.0000    0.69110   0.09450   0.92380   Biso      1.000     H          0.105913  
         H13       1.0000    0.77250   0.09310   0.42900   Biso      1.000     H          0.110018  
         H14       1.0000    0.58260   0.76360   0.67800   Biso      1.000     H          0.099256  
         H15       1.0000    0.41710   0.23790   0.96230   Biso      1.000     H          0.122464  
         H16       1.0000    0.52210   0.20190   0.10550   Biso      1.000     H          0.112659  
         H17       1.0000    0.80890   0.59450   0.57620   Biso      1.000     H          0.105914  
         H18       1.0000    0.00070   0.91580   0.62980   Biso      1.000     H          0.111512  
         H19       1.0000    0.64390   0.05470   0.52420   Biso      1.000     H          0.124213  
         H20       1.0000    0.58450   0.68080   0.54810   Biso      1.000     H          0.127053  
         H21       1.0000    0.37350   0.61870   0.80080   Biso      1.000     H          0.128106  
         H22       1.0000    0.09670   0.53780   0.59710   Biso      1.000     H          0.088138  
         H23       1.0000    0.49930   0.41580   0.87020   Biso      1.000     H          0.111512  
         H24       1.0000    0.33060   0.56600   0.48280   Biso      1.000     H          0.085137  
         H25       1.0000    0.16940   0.06600   0.01720   Biso      1.000     H          0.085137  
         H26       1.0000    0.27250   0.40690   0.92900   Biso      1.000     H          0.110018  
         H27       1.0000    0.72750   0.59310   0.07100   Biso      1.000     H          0.110018  
         H28       1.0000    0.47790   0.79810   0.89450   Biso      1.000     H          0.11266   
         H29       1.0000    0.41740   0.23640   0.32200   Biso      1.000     H          0.099256  
         H30       1.0000    0.08260   0.73640   0.17800   Biso      1.000     H          0.099256  
         H31       1.0000    0.85380   0.25280   0.30770   Biso      1.000     H          0.127418  
         H32       1.0000    0.90330   0.46220   0.40290   Biso      1.000     H          0.088138  
         H33       1.0000    0.08450   0.81920   0.04810   Biso      1.000     H          0.127052  
         H34       1.0000    0.47060   0.48130   0.29530   Biso      1.000     H          0.099253  
         H35       1.0000    0.87350   0.88130   0.30080   Biso      1.000     H          0.128106  
         H36       1.0000    0.83060   0.93400   0.98280   Biso      1.000     H          0.085137  
         H37       1.0000    0.99930   0.08420   0.37020   Biso      1.000     H          0.111511  
         H38       1.0000    0.30890   0.90550   0.07620   Biso      1.000     H          0.105914  
         H39       1.0000    0.74620   0.13020   0.24660   Biso      1.000     H          0.116214  
         H40       1.0000    0.81730   0.46780   0.16370   Biso      1.000     H          0.124604  
         H41       1.0000    0.35610   0.94530   0.47580   Biso      1.000     H          0.124213  
         H42       1.0000    0.22750   0.90690   0.57100   Biso      1.000     H          0.110019  
         H43       1.0000    0.41550   0.31920   0.45190   Biso      1.000     H          0.127054  
         H44       1.0000    0.62650   0.38130   0.19920   Biso      1.000     H          0.128106  
         H45       1.0000    0.64620   0.75280   0.19230   Biso      1.000     H          0.127418  
         H46       1.0000    0.50070   0.58420   0.12980   Biso      1.000     H          0.111511  
         H47       1.0000    0.40330   0.03780   0.90290   Biso      1.000     H          0.088138  
         H48       1.0000    0.97060   0.01870   0.79530   Biso      1.000     H          0.099254  
         H49       1.0000    0.68270   0.96780   0.33630   Biso      1.000     H          0.124604  
         H50       1.0000    0.75380   0.63020   0.25340   Biso      1.000     H          0.116215  
         H51       1.0000    0.66940   0.43400   0.51720   Biso      1.000     H          0.085137  
         H52       1.0000    0.24620   0.36980   0.74660   Biso      1.000     H          0.116216  
         H53       1.0000    0.31730   0.03220   0.66370   Biso      1.000     H          0.124604  
         H54       1.0000    0.02940   0.98130   0.20470   Biso      1.000     H          0.099254  
         H55       1.0000    0.58290   0.76210   0.03770   Biso      1.000     H          0.122464  
         H56       1.0000    0.59670   0.96220   0.09710   Biso      1.000     H          0.088138  
         H57       1.0000    0.91710   0.26210   0.46230   Biso      1.000     H          0.122465  
         H58       1.0000    0.02210   0.29810   0.60550   Biso      1.000     H          0.112658  
         H59       1.0000    0.19110   0.40550   0.42380   Biso      1.000     H          0.105913  
         H60       1.0000    0.14390   0.44530   0.02420   Biso      1.000     H          0.124213  
         N1        1.0000    0.70410   0.53390   0.65210   Biso      1.000     N          -0.274024           
         N2        1.0000    0.76210   0.90500   0.17940   Biso      1.000     N          -0.20768  
         N3        1.0000    0.86190   0.77230   0.16980   Biso      1.000     N          -0.201979           
         N4        1.0000    0.59350   0.98450   0.21210   Biso      1.000     N          -0.27903  
         N5        1.0000    0.64890   0.88080   0.91080   Biso      1.000     N          -0.284777           
         N6        1.0000    0.09350   0.51550   0.71210   Biso      1.000     N          -0.279029           
         N7        1.0000    0.95770   0.66140   0.22570   Biso      1.000     N          -0.274737           
         N8        1.0000    0.00210   0.88780   0.12860   Biso      1.000     N          -0.204502           
         N9        1.0000    0.74500   0.84850   0.04080   Biso      1.000     N          -0.194595           
         N10       1.0000    0.20410   0.96610   0.15210   Biso      1.000     N          -0.274024           
         N11       1.0000    0.14890   0.61920   0.41080   Biso      1.000     N          -0.284777           
         N12       1.0000    0.13810   0.22770   0.83020   Biso      1.000     N          -0.20198  
         N13       1.0000    0.36190   0.72770   0.66980   Biso      1.000     N          -0.201981           
         N14       1.0000    0.79590   0.03390   0.84790   Biso      1.000     N          -0.274026           
         N15       1.0000    0.35110   0.11920   0.08920   Biso      1.000     N          -0.284777           
         N16       1.0000    0.40650   0.01550   0.78790   Biso      1.000     N          -0.27903  
         N17       1.0000    0.25500   0.15150   0.95920   Biso      1.000     N          -0.194595           
         N18       1.0000    0.99790   0.11220   0.87140   Biso      1.000     N          -0.2045   
         N19       1.0000    0.04230   0.33860   0.77430   Biso      1.000     N          -0.274736           
         N20       1.0000    0.23790   0.09500   0.82060   Biso      1.000     N          -0.20768  
         N21       1.0000    0.90650   0.48450   0.28790   Biso      1.000     N          -0.27903  
         N22       1.0000    0.85110   0.38080   0.58920   Biso      1.000     N          -0.284778           
         N23       1.0000    0.63810   0.27230   0.33020   Biso      1.000     N          -0.201979           
         N24       1.0000    0.29590   0.46610   0.34790   Biso      1.000     N          -0.274026           
         N25       1.0000    0.75500   0.34850   0.45920   Biso      1.000     N          -0.194594           
         N26       1.0000    0.49790   0.38780   0.37140   Biso      1.000     N          -0.204501           
         N27       1.0000    0.54230   0.16140   0.27430   Biso      1.000     N          -0.274738           
         N28       1.0000    0.45770   0.83860   0.72570   Biso      1.000     N          -0.274736           
         N29       1.0000    0.24500   0.65150   0.54080   Biso      1.000     N          -0.194595           
         N30       1.0000    0.73790   0.40500   0.32060   Biso      1.000     N          -0.20768  
         N31       1.0000    0.26210   0.59500   0.67940   Biso      1.000     N          -0.207681           
         N32       1.0000    0.50210   0.61220   0.62860   Biso      1.000     N          -0.204502           
         O1        1.0000    0.29360   0.58750   0.20680   Biso      1.000     O          -0.594778           
         O2        1.0000    0.70640   0.41250   0.79320   Biso      1.000     O          -0.594778           
         O3        1.0000    0.38840   0.00520   0.34660   Biso      1.000     O          -0.559556           
         O4        1.0000    0.20640   0.08750   0.29320   Biso      1.000     O          -0.594778           
         O5        1.0000    0.11160   0.50520   0.15340   Biso      1.000     O          -0.559556           
         O6        1.0000    0.88840   0.49480   0.84660   Biso      1.000     O          -0.559556           
         O7        1.0000    0.61160   0.99480   0.65340   Biso      1.000     O          -0.559556           
         O8        1.0000    0.79360   0.91250   0.70680   Biso      1.000     O          -0.594778 