
##########################################################################
#               Crystallographic Information Format file
#               Produced by PyCifRW module
#
#  This is a CIF file.  CIF has been adopted by the International
#  Union of Crystallography as the standard for data archiving and
#  transmission.
#
#  For information on this file format, follow the CIF links at
#  http://www.iucr.org
##########################################################################

data_image0

_cell_length_a                          10.4622
_cell_length_b                          7.187
_cell_length_c                          13.4544
_cell_angle_alpha                       90
_cell_angle_beta                        112.694
_cell_angle_gamma                       90
_symmetry_space_group_name_H-M          'P 1'
_symmetry_int_tables_number             1
loop_
  _symmetry_equiv_pos_as_xyz
         'x, y, z' 
loop_
  _atom_site_label
  _atom_site_occupancy
  _atom_site_fract_x
  _atom_site_fract_y
  _atom_site_fract_z
  _atom_site_thermal_displace_type
  _atom_site_B_iso_or_equiv
  _atom_site_type_symbol
  _atom_site_charge
         C1        1.0000    0.31420   0.25000   0.66780   Biso      1.000     C          -0.11576900000000001          
         C2        1.0000    0.17960   0.25000   0.60800   Biso      1.000     C          0.005661  
         C3        1.0000    0.35940   0.25000   0.50520   Biso      1.000     C          -0.134322           
         C4        1.0000    0.40780   0.25000   0.61450   Biso      1.000     C          0.003106  
         C5        1.0000    0.56400   0.25000   0.67910   Biso      1.000     C          0.56399   
         C6        1.0000    0.07110   0.25000   0.65900   Biso      1.000     C          0.536412  
         C7        1.0000    0.16390   0.25000   0.32260   Biso      1.000     C          0.273609  
         C8        1.0000    0.21430   0.25000   0.44270   Biso      1.000     C          0.050342000000000005          
         C9        1.0000    0.43600   0.75000   0.32090   Biso      1.000     C          0.56399   
         C10       1.0000    0.64060   0.75000   0.49480   Biso      1.000     C          -0.13431700000000002          
         C11       1.0000    0.78570   0.75000   0.55730   Biso      1.000     C          0.050344  
         C12       1.0000    0.87360   0.75000   0.50700   Biso      1.000     C          -0.142369           
         C13       1.0000    0.82040   0.75000   0.39200   Biso      1.000     C          0.00563   
         C14       1.0000    0.68580   0.75000   0.33220   Biso      1.000     C          -0.11573800000000001          
         C15       1.0000    0.92890   0.75000   0.34100   Biso      1.000     C          0.5364439999999999  
         C16       1.0000    0.83610   0.75000   0.67740   Biso      1.000     C          0.27361399999999997           
         C17       1.0000    0.59220   0.75000   0.38550   Biso      1.000     C          0.0030960000000000002         
         C18       1.0000    0.12640   0.25000   0.49300   Biso      1.000     C          -0.142373           
         Cd1       1.0000    0.14370   0.75000   0.27488   Biso      1.000     Cd          0.910285  
         Cd2       1.0000    0.00000   0.00000   0.00000   Biso      1.000     Cd          0.8772059999999999  
         Cd3       1.0000    0.00000   0.50000   0.00000   Biso      1.000     Cd          0.8772040000000001  
         Cd4       1.0000    0.85630   0.25000   0.72512   Biso      1.000     Cd          0.910294  
         H1        1.0000    0.65360   0.75000   0.25740   Biso      1.000     H          0.13918599999999998           
         H2        1.0000    0.96870   0.75000   0.54650   Biso      1.000     H          0.13365   
         H3        1.0000    0.57850   0.75000   0.52900   Biso      1.000     H          0.13317400000000001           
         H4        1.0000    0.03130   0.25000   0.45350   Biso      1.000     H          0.133653  
         H5        1.0000    0.42150   0.25000   0.47100   Biso      1.000     H          0.133176  
         H6        1.0000    0.34640   0.25000   0.74260   Biso      1.000     H          0.13919   
         N1        1.0000    0.13550   0.40360   0.26060   Biso      1.000     N          -0.21619699999999997          
         N2        1.0000    0.09640   0.15720   0.16180   Biso      1.000     N          -0.060698           
         N3        1.0000    0.86450   0.59640   0.73940   Biso      1.000     N          -0.216193           
         N4        1.0000    0.90360   0.65720   0.83820   Biso      1.000     N          -0.060659000000000005         
         N5        1.0000    0.86450   0.90360   0.73940   Biso      1.000     N          -0.21620100000000003          
         N6        1.0000    0.90360   0.84280   0.83820   Biso      1.000     N          -0.060592999999999994         
         N7        1.0000    0.13550   0.09640   0.26060   Biso      1.000     N          -0.21615  
         N8        1.0000    0.09640   0.34280   0.16180   Biso      1.000     N          -0.060586           
         O1        1.0000    0.94360   0.25000   0.60150   Biso      1.000     O          -0.474578           
         O2        1.0000    0.60560   0.25000   0.77670   Biso      1.000     O          -0.42420699999999995          
         O3        1.0000    0.11430   0.25000   0.76270   Biso      1.000     O          -0.525655           
         O4        1.0000    0.63500   0.25000   0.62260   Biso      1.000     O          -0.523893           
         O5        1.0000    0.09750   0.75000   0.09760   Biso      1.000     O          -0.732196           
         O6        1.0000    0.05640   0.75000   0.39850   Biso      1.000     O          -0.474596           
         O7        1.0000    0.90250   0.25000   0.90240   Biso      1.000     O          -0.732197           
         O8        1.0000    0.88570   0.75000   0.23730   Biso      1.000     O          -0.525675           
         O9        1.0000    0.39440   0.75000   0.22330   Biso      1.000     O          -0.42420399999999997          
         O10       1.0000    0.36500   0.75000   0.37740   Biso      1.000     O          -0.523892 