
##########################################################################
#               Crystallographic Information Format file
#               Produced by PyCifRW module
#
#  This is a CIF file.  CIF has been adopted by the International
#  Union of Crystallography as the standard for data archiving and
#  transmission.
#
#  For information on this file format, follow the CIF links at
#  http://www.iucr.org
##########################################################################

data_image0

_cell_length_a                          8.663
_cell_length_b                          9.069
_cell_length_c                          11.875
_cell_angle_alpha                       110.05
_cell_angle_beta                        90
_cell_angle_gamma                       90
_symmetry_space_group_name_H-M          'P 1'
_symmetry_int_tables_number             1
loop_
  _symmetry_equiv_pos_as_xyz
         'x, y, z' 
loop_
  _atom_site_label
  _atom_site_occupancy
  _atom_site_fract_x
  _atom_site_fract_y
  _atom_site_fract_z
  _atom_site_thermal_displace_type
  _atom_site_B_iso_or_equiv
  _atom_site_type_symbol
  _atom_site_charge
         C1        1.0000    0.26680   0.86810   0.77900   Biso      1.000     C          0.707635  
         C2        1.0000    0.17140   0.76850   0.67780   Biso      1.000     C          -0.347477           
         C3        1.0000    0.26490   0.69010   0.56160   Biso      1.000     C          -0.122834           
         C4        1.0000    0.17050   0.59110   0.46140   Biso      1.000     C          -0.200337           
         C5        1.0000    0.26180   0.49880   0.34910   Biso      1.000     C          -0.13980499999999998          
         C6        1.0000    0.16880   0.38950   0.25280   Biso      1.000     C          -0.354773           
         C7        1.0000    0.26210   0.27440   0.14890   Biso      1.000     C          0.695549  
         C8        1.0000    0.27100   0.92780   0.21500   Biso      1.000     C          0.723308  
         C9        1.0000    0.27200   0.93900   0.34220   Biso      1.000     C          -0.359014           
         C10       1.0000    0.23300   0.11100   0.42550   Biso      1.000     C          -0.150892           
         C11       1.0000    0.23300   0.12500   0.55670   Biso      1.000     C          -0.187477           
         C12       1.0000    0.20400   0.29400   0.64280   Biso      1.000     C          -0.160827           
         C13       1.0000    0.19500   0.31500   0.77200   Biso      1.000     C          -0.35885700000000004          
         C14       1.0000    0.34130   0.26410   0.82170   Biso      1.000     C          0.712263  
         C15       1.0000    0.76680   0.13190   0.22100   Biso      1.000     C          0.707635  
         C16       1.0000    0.67140   0.23150   0.32220   Biso      1.000     C          -0.347477           
         C17       1.0000    0.76490   0.30990   0.43840   Biso      1.000     C          -0.122834           
         C18       1.0000    0.67050   0.40890   0.53860   Biso      1.000     C          -0.200337           
         C19       1.0000    0.76180   0.50120   0.65090   Biso      1.000     C          -0.13980499999999998          
         C20       1.0000    0.66880   0.61050   0.74720   Biso      1.000     C          -0.354773           
         C21       1.0000    0.76210   0.72560   0.85110   Biso      1.000     C          0.695549  
         C22       1.0000    0.77100   0.07220   0.78500   Biso      1.000     C          0.723308  
         C23       1.0000    0.77200   0.06100   0.65780   Biso      1.000     C          -0.359013           
         C24       1.0000    0.73300   0.88900   0.57450   Biso      1.000     C          -0.150892           
         C25       1.0000    0.69500   0.68500   0.22800   Biso      1.000     C          -0.358858           
         C26       1.0000    0.73300   0.87500   0.44330   Biso      1.000     C          -0.187477           
         C27       1.0000    0.70400   0.70600   0.35720   Biso      1.000     C          -0.160826           
         C28       1.0000    0.84130   0.73590   0.17830   Biso      1.000     C          0.712263  
         H1        1.0000    0.59640   0.34260   0.55990   Biso      1.000     H          0.125825  
         H2        1.0000    0.15310   0.05660   0.56910   Biso      1.000     H          0.093239  
         H3        1.0000    0.33130   0.08840   0.57590   Biso      1.000     H          0.089143  
         H4        1.0000    0.13240   0.14050   0.40420   Biso      1.000     H          0.106201  
         H5        1.0000    0.30870   0.18320   0.41320   Biso      1.000     H          0.10418800000000002           
         H6        1.0000    0.19730   0.86670   0.35460   Biso      1.000     H          0.125104  
         H7        1.0000    0.37360   0.90980   0.36270   Biso      1.000     H          0.133493  
         H8        1.0000    0.50990   0.18480   0.75900   Biso      1.000     H          0.42802299999999993           
         H9        1.0000    0.10370   0.32910   0.28730   Biso      1.000     H          0.177643  
         H10       1.0000    0.10150   0.45030   0.22010   Biso      1.000     H          0.142782  
         H11       1.0000    0.34210   0.43980   0.37170   Biso      1.000     H          0.09690599999999999           
         H12       1.0000    0.31200   0.57270   0.31820   Biso      1.000     H          0.09776   
         H13       1.0000    0.11300   0.51750   0.48810   Biso      1.000     H          0.1246    
         H14       1.0000    0.09640   0.65740   0.44010   Biso      1.000     H          0.125825  
         H15       1.0000    0.34590   0.62630   0.57790   Biso      1.000     H          0.23785100000000003           
         H16       1.0000    0.31390   0.77120   0.53810   Biso      1.000     H          0.10355199999999999           
         H17       1.0000    0.12220   0.68730   0.70130   Biso      1.000     H          0.160419  
         H18       1.0000    0.09050   0.83240   0.66160   Biso      1.000     H          0.16806   
         H19       1.0000    0.28660   0.35980   0.63170   Biso      1.000     H          0.096596  
         H20       1.0000    0.84590   0.37370   0.42210   Biso      1.000     H          0.23785100000000003           
         H21       1.0000    0.10850   0.33100   0.61970   Biso      1.000     H          0.103253  
         H22       1.0000    0.17550   0.42470   0.81670   Biso      1.000     H          0.162243  
         H23       1.0000    0.61300   0.48250   0.51190   Biso      1.000     H          0.1246    
         H24       1.0000    0.81200   0.42730   0.68180   Biso      1.000     H          0.09776   
         H25       1.0000    0.84210   0.56020   0.62830   Biso      1.000     H          0.09690599999999999           
         H26       1.0000    0.60150   0.54970   0.77990   Biso      1.000     H          0.142782  
         H27       1.0000    0.60370   0.67090   0.71270   Biso      1.000     H          0.177644  
         H28       1.0000    0.00990   0.81520   0.24100   Biso      1.000     H          0.42802299999999993           
         H29       1.0000    0.81390   0.22880   0.46190   Biso      1.000     H          0.10355199999999999           
         H30       1.0000    0.69730   0.13330   0.64540   Biso      1.000     H          0.125104  
         H31       1.0000    0.10830   0.25490   0.78470   Biso      1.000     H          0.149448  
         H32       1.0000    0.80870   0.81680   0.58680   Biso      1.000     H          0.10418800000000002           
         H33       1.0000    0.83130   0.91160   0.42410   Biso      1.000     H          0.089142  
         H34       1.0000    0.65310   0.94340   0.43090   Biso      1.000     H          0.093238  
         H35       1.0000    0.78660   0.64020   0.36830   Biso      1.000     H          0.096596  
         H36       1.0000    0.60850   0.66900   0.38030   Biso      1.000     H          0.103253  
         H37       1.0000    0.60830   0.74510   0.21530   Biso      1.000     H          0.149448  
         H38       1.0000    0.67550   0.57530   0.18330   Biso      1.000     H          0.162244  
         H39       1.0000    0.62220   0.31270   0.29870   Biso      1.000     H          0.160419  
         H40       1.0000    0.59050   0.16760   0.33840   Biso      1.000     H          0.168059  
         H41       1.0000    0.63240   0.85950   0.59580   Biso      1.000     H          0.106201  
         H42       1.0000    0.87360   0.09020   0.63730   Biso      1.000     H          0.133493  
         Nd1       1.0000    0.47062   0.02571   0.98776   Biso      1.000     Nd          2.152458  
         Nd2       1.0000    0.97062   0.97429   0.01224   Biso      1.000     Nd          2.152458  
         O1        1.0000    0.96200   0.73340   0.23070   Biso      1.000     O          -0.500937           
         O2        1.0000    0.65810   0.12900   0.84880   Biso      1.000     O          -0.6855140000000001           
         O3        1.0000    0.89030   0.02120   0.82390   Biso      1.000     O          -0.708675           
         O4        1.0000    0.89910   0.70270   0.86770   Biso      1.000     O          -0.5865279999999999           
         O5        1.0000    0.69170   0.85250   0.91480   Biso      1.000     O          -0.769213           
         O6        1.0000    0.89770   0.10110   0.22660   Biso      1.000     O          -0.5686140000000001           
         O7        1.0000    0.69040   0.07400   0.11320   Biso      1.000     O          -0.8325549999999999           
         O8        1.0000    0.83700   0.76630   0.08060   Biso      1.000     O          -0.595353           
         O9        1.0000    0.48900   0.63400   0.59780   Biso      1.000     O          -0.387862           
         O10       1.0000    0.46200   0.26660   0.76930   Biso      1.000     O          -0.500937           
         O11       1.0000    0.15810   0.87100   0.15120   Biso      1.000     O          -0.6855140000000001           
         O12       1.0000    0.39030   0.97880   0.17610   Biso      1.000     O          -0.708674           
         O13       1.0000    0.39910   0.29730   0.13230   Biso      1.000     O          -0.5865279999999999           
         O14       1.0000    0.19170   0.14750   0.08520   Biso      1.000     O          -0.769213           
         O15       1.0000    0.39770   0.89890   0.77340   Biso      1.000     O          -0.5686140000000001           
         O16       1.0000    0.19040   0.92600   0.88680   Biso      1.000     O          -0.832556           
         O17       1.0000    0.33700   0.23370   0.91940   Biso      1.000     O          -0.595353           
         O18       1.0000    0.98900   0.36600   0.40220   Biso      1.000     O          -0.387862 