
##########################################################################
#               Crystallographic Information Format file
#               Produced by PyCifRW module
#
#  This is a CIF file.  CIF has been adopted by the International
#  Union of Crystallography as the standard for data archiving and
#  transmission.
#
#  For information on this file format, follow the CIF links at
#  http://www.iucr.org
##########################################################################

data_image0

_cell_length_a                          14.5049
_cell_length_b                          17.1616
_cell_length_c                          18.1389
_cell_angle_alpha                       90
_cell_angle_beta                        90
_cell_angle_gamma                       90
_symmetry_space_group_name_H-M          'P 1'
_symmetry_int_tables_number             1
loop_
  _symmetry_equiv_pos_as_xyz
         'x, y, z' 
loop_
  _atom_site_label
  _atom_site_occupancy
  _atom_site_fract_x
  _atom_site_fract_y
  _atom_site_fract_z
  _atom_site_thermal_displace_type
  _atom_site_B_iso_or_equiv
  _atom_site_type_symbol
  _atom_site_charge
         C1        1.0000    0.89590   0.70760   0.23280   Biso      1.000     C          -0.09569  
         C2        1.0000    0.94760   0.68650   0.64490   Biso      1.000     C          0.626488  
         C3        1.0000    0.96350   0.73980   0.18810   Biso      1.000     C          -0.017924           
         C4        1.0000    0.96350   0.76020   0.68810   Biso      1.000     C          -0.017926           
         C5        1.0000    0.89590   0.79240   0.73280   Biso      1.000     C          -0.095688           
         C6        1.0000    0.04960   0.79690   0.68430   Biso      1.000     C          -0.099364           
         C7        1.0000    0.02130   0.96080   0.82090   Biso      1.000     C          0.612944  
         C8        1.0000    0.99980   0.89380   0.77140   Biso      1.000     C          -0.026083           
         C9        1.0000    0.41320   0.85790   0.72600   Biso      1.000     C          -0.101477           
         C10       1.0000    0.56740   0.86240   0.77440   Biso      1.000     C          -0.094296           
         C11       1.0000    0.49980   0.89380   0.72860   Biso      1.000     C          -0.026082           
         C12       1.0000    0.52130   0.96080   0.67910   Biso      1.000     C          0.612944  
         C13       1.0000    0.54960   0.79690   0.81570   Biso      1.000     C          -0.099359           
         C14       1.0000    0.39590   0.79240   0.76720   Biso      1.000     C          -0.095686           
         C15       1.0000    0.46350   0.76020   0.81190   Biso      1.000     C          -0.017925           
         C16       1.0000    0.44760   0.68650   0.85510   Biso      1.000     C          0.626488  
         C17       1.0000    0.45260   0.96280   0.94440   Biso      1.000     C          -0.117803           
         C18       1.0000    0.04740   0.46280   0.94440   Biso      1.000     C          -0.117803           
         C19       1.0000    0.08680   0.52710   0.97790   Biso      1.000     C          -0.016278           
         C20       1.0000    0.18070   0.55560   0.95650   Biso      1.000     C          0.579632  
         C21       1.0000    0.58680   0.35790   0.77400   Biso      1.000     C          -0.101477           
         C22       1.0000    0.43260   0.36240   0.72560   Biso      1.000     C          -0.094296           
         C23       1.0000    0.50020   0.39380   0.77140   Biso      1.000     C          -0.026082           
         C24       1.0000    0.47870   0.46080   0.82090   Biso      1.000     C          0.612944  
         C25       1.0000    0.45040   0.29690   0.68430   Biso      1.000     C          -0.099359           
         C26       1.0000    0.60410   0.29240   0.73280   Biso      1.000     C          -0.095686           
         C27       1.0000    0.53650   0.26020   0.68810   Biso      1.000     C          -0.017925           
         C28       1.0000    0.55240   0.18650   0.64490   Biso      1.000     C          0.626488  
         C29       1.0000    0.53840   0.56490   0.46660   Biso      1.000     C          -0.119196           
         C30       1.0000    0.96160   0.06490   0.46660   Biso      1.000     C          -0.119195           
         C31       1.0000    0.54740   0.46280   0.55560   Biso      1.000     C          -0.117803           
         C32       1.0000    0.68070   0.55560   0.54350   Biso      1.000     C          0.579632  
         C33       1.0000    0.41320   0.02710   0.97790   Biso      1.000     C          -0.016278           
         C34       1.0000    0.31930   0.05560   0.95650   Biso      1.000     C          0.579632  
         C35       1.0000    0.04960   0.70310   0.18430   Biso      1.000     C          -0.099364           
         C36       1.0000    0.02130   0.53920   0.32090   Biso      1.000     C          0.612944  
         C37       1.0000    0.99980   0.60620   0.27140   Biso      1.000     C          -0.026083           
         C38       1.0000    0.06740   0.63760   0.22560   Biso      1.000     C          -0.09429  
         C39       1.0000    0.91320   0.64210   0.27400   Biso      1.000     C          -0.101473           
         C40       1.0000    0.31930   0.44440   0.45650   Biso      1.000     C          0.579633  
         C41       1.0000    0.41320   0.47290   0.47790   Biso      1.000     C          -0.016282           
         C42       1.0000    0.45260   0.53720   0.44440   Biso      1.000     C          -0.117799           
         C43       1.0000    0.46160   0.43510   0.53340   Biso      1.000     C          -0.119194           
         C44       1.0000    0.05240   0.31350   0.35510   Biso      1.000     C          0.626488  
         C45       1.0000    0.03650   0.23980   0.31190   Biso      1.000     C          -0.017926           
         C46       1.0000    0.10410   0.20760   0.26720   Biso      1.000     C          -0.095688           
         C47       1.0000    0.95040   0.20310   0.31570   Biso      1.000     C          -0.099364           
         C48       1.0000    0.97870   0.03920   0.17910   Biso      1.000     C          0.612944  
         C49       1.0000    0.00020   0.10620   0.22860   Biso      1.000     C          -0.026083           
         C50       1.0000    0.93260   0.13760   0.27440   Biso      1.000     C          -0.09429  
         C51       1.0000    0.08680   0.14210   0.22600   Biso      1.000     C          -0.101473           
         C52       1.0000    0.05240   0.18650   0.85510   Biso      1.000     C          0.626488  
         C53       1.0000    0.03650   0.26020   0.81190   Biso      1.000     C          -0.017926           
         C54       1.0000    0.10410   0.29240   0.76720   Biso      1.000     C          -0.095688           
         C55       1.0000    0.95040   0.29690   0.81570   Biso      1.000     C          -0.099364           
         C56       1.0000    0.97870   0.46080   0.67910   Biso      1.000     C          0.612944  
         C57       1.0000    0.00020   0.39380   0.72860   Biso      1.000     C          -0.026083           
         C58       1.0000    0.93260   0.36240   0.77440   Biso      1.000     C          -0.09429  
         C59       1.0000    0.08680   0.35790   0.72600   Biso      1.000     C          -0.101473           
         C60       1.0000    0.58680   0.52710   0.52210   Biso      1.000     C          -0.016277           
         C61       1.0000    0.95260   0.96280   0.55560   Biso      1.000     C          -0.117803           
         C62       1.0000    0.03840   0.56490   0.03340   Biso      1.000     C          -0.119195           
         C63       1.0000    0.81930   0.05560   0.54350   Biso      1.000     C          0.579632  
         C64       1.0000    0.46350   0.73980   0.31190   Biso      1.000     C          -0.017926           
         C65       1.0000    0.44760   0.81350   0.35510   Biso      1.000     C          0.626488  
         C66       1.0000    0.03840   0.93510   0.53340   Biso      1.000     C          -0.119196           
         C67       1.0000    0.04740   0.03720   0.44440   Biso      1.000     C          -0.117804           
         C68       1.0000    0.08680   0.97290   0.47790   Biso      1.000     C          -0.016276           
         C69       1.0000    0.18070   0.94440   0.45650   Biso      1.000     C          0.579632  
         C70       1.0000    0.39590   0.70760   0.26720   Biso      1.000     C          -0.095688           
         C71       1.0000    0.91320   0.02710   0.52210   Biso      1.000     C          -0.016277           
         C72       1.0000    0.91320   0.85790   0.77400   Biso      1.000     C          -0.101473           
         C73       1.0000    0.68070   0.94440   0.04350   Biso      1.000     C          0.579633  
         C74       1.0000    0.58680   0.97290   0.02210   Biso      1.000     C          -0.016282           
         C75       1.0000    0.54740   0.03720   0.05560   Biso      1.000     C          -0.117798           
         C76       1.0000    0.53840   0.93510   0.96660   Biso      1.000     C          -0.119194           
         C77       1.0000    0.94760   0.81350   0.14490   Biso      1.000     C          0.626488  
         C78       1.0000    0.06740   0.86240   0.72560   Biso      1.000     C          -0.09429  
         C79       1.0000    0.54960   0.70310   0.31570   Biso      1.000     C          -0.099364           
         C80       1.0000    0.46160   0.06490   0.03340   Biso      1.000     C          -0.119195           
         C81       1.0000    0.49980   0.60620   0.22860   Biso      1.000     C          -0.026083           
         C82       1.0000    0.58680   0.14210   0.27400   Biso      1.000     C          -0.101477           
         C83       1.0000    0.43260   0.13760   0.22560   Biso      1.000     C          -0.094296           
         C84       1.0000    0.50020   0.10620   0.27140   Biso      1.000     C          -0.026082           
         C85       1.0000    0.47870   0.03920   0.32090   Biso      1.000     C          0.612944  
         C86       1.0000    0.45040   0.20310   0.18430   Biso      1.000     C          -0.099359           
         C87       1.0000    0.60410   0.20760   0.23280   Biso      1.000     C          -0.095686           
         C88       1.0000    0.52130   0.53920   0.17910   Biso      1.000     C          0.612944  
         C89       1.0000    0.55240   0.31350   0.14490   Biso      1.000     C          0.626488  
         C90       1.0000    0.53650   0.23980   0.18810   Biso      1.000     C          -0.017925           
         C91       1.0000    0.56740   0.63760   0.27440   Biso      1.000     C          -0.09429  
         C92       1.0000    0.41320   0.64210   0.22600   Biso      1.000     C          -0.101473           
         C93       1.0000    0.81930   0.44440   0.04350   Biso      1.000     C          0.579633  
         C94       1.0000    0.91320   0.47290   0.02210   Biso      1.000     C          -0.016282           
         C95       1.0000    0.95260   0.53720   0.05560   Biso      1.000     C          -0.117799           
         C96       1.0000    0.96160   0.43510   0.96660   Biso      1.000     C          -0.119194           
         H1        1.0000    0.59510   0.77680   0.84630   Biso      1.000     H          0.121658  
         H2        1.0000    0.13290   0.37850   0.69620   Biso      1.000     H          0.121221  
         H3        1.0000    0.10900   0.06200   0.01900   Biso      1.000     H          0.46366   
         H4        1.0000    0.57860   0.43770   0.59350   Biso      1.000     H          0.112674  
         H5        1.0000    0.56340   0.60880   0.44430   Biso      1.000     H          0.108263  
         H6        1.0000    0.83800   0.76920   0.73490   Biso      1.000     H          0.124036  
         H7        1.0000    0.09510   0.77680   0.65370   Biso      1.000     H          0.121658  
         H8        1.0000    0.12510   0.88590   0.72300   Biso      1.000     H          0.124718  
         H9        1.0000    0.86710   0.87850   0.80380   Biso      1.000     H          0.121221  
         H10       1.0000    0.89100   0.56200   0.48100   Biso      1.000     H          0.46366   
         H11       1.0000    0.56340   0.89120   0.94430   Biso      1.000     H          0.108263  
         H12       1.0000    0.87490   0.38590   0.77700   Biso      1.000     H          0.124718  
         H13       1.0000    0.83800   0.73080   0.23490   Biso      1.000     H          0.124036  
         H14       1.0000    0.09510   0.72320   0.15370   Biso      1.000     H          0.121658  
         H15       1.0000    0.12510   0.61410   0.22300   Biso      1.000     H          0.124718  
         H16       1.0000    0.86710   0.62150   0.30380   Biso      1.000     H          0.121221  
         H17       1.0000    0.89100   0.93800   0.98100   Biso      1.000     H          0.46366   
         H18       1.0000    0.42140   0.56230   0.40650   Biso      1.000     H          0.112674  
         H19       1.0000    0.43660   0.39120   0.55570   Biso      1.000     H          0.108263  
         H20       1.0000    0.16200   0.23080   0.26510   Biso      1.000     H          0.124036  
         H21       1.0000    0.90490   0.22320   0.34630   Biso      1.000     H          0.121658  
         H22       1.0000    0.87490   0.11410   0.27700   Biso      1.000     H          0.124718  
         H23       1.0000    0.13290   0.12150   0.19620   Biso      1.000     H          0.121221  
         H24       1.0000    0.10900   0.43800   0.51900   Biso      1.000     H          0.46366   
         H25       1.0000    0.57860   0.06230   0.09350   Biso      1.000     H          0.112674  
         H26       1.0000    0.90490   0.27680   0.84630   Biso      1.000     H          0.121658  
         H27       1.0000    0.42140   0.93770   0.90650   Biso      1.000     H          0.112674  
         H28       1.0000    0.43660   0.10880   0.05570   Biso      1.000     H          0.108263  
         H29       1.0000    0.33800   0.76920   0.76510   Biso      1.000     H          0.124035  
         H30       1.0000    0.06340   0.60880   0.05570   Biso      1.000     H          0.108263  
         H31       1.0000    0.07860   0.43770   0.90650   Biso      1.000     H          0.112674  
         H32       1.0000    0.60900   0.06200   0.48100   Biso      1.000     H          0.46366   
         H33       1.0000    0.63290   0.37850   0.80380   Biso      1.000     H          0.121221  
         H34       1.0000    0.37490   0.38590   0.72300   Biso      1.000     H          0.124719  
         H35       1.0000    0.40490   0.27680   0.65370   Biso      1.000     H          0.121658  
         H36       1.0000    0.66200   0.26920   0.73490   Biso      1.000     H          0.124035  
         H37       1.0000    0.93660   0.10880   0.44430   Biso      1.000     H          0.108263  
         H38       1.0000    0.92140   0.93770   0.59350   Biso      1.000     H          0.112674  
         H39       1.0000    0.60900   0.43800   0.98100   Biso      1.000     H          0.46366   
         H40       1.0000    0.63290   0.12150   0.30380   Biso      1.000     H          0.121221  
         H41       1.0000    0.16200   0.26920   0.76510   Biso      1.000     H          0.124036  
         H42       1.0000    0.37490   0.11410   0.22300   Biso      1.000     H          0.124718  
         H43       1.0000    0.66200   0.23080   0.23490   Biso      1.000     H          0.124035  
         H44       1.0000    0.36710   0.87850   0.69620   Biso      1.000     H          0.121221  
         H45       1.0000    0.92140   0.56230   0.09350   Biso      1.000     H          0.112674  
         H46       1.0000    0.39100   0.93800   0.51900   Biso      1.000     H          0.46366   
         H47       1.0000    0.36710   0.62150   0.19620   Biso      1.000     H          0.121221  
         H48       1.0000    0.62510   0.61410   0.27700   Biso      1.000     H          0.124718  
         H49       1.0000    0.59510   0.72320   0.34630   Biso      1.000     H          0.121658  
         H50       1.0000    0.33800   0.73080   0.26510   Biso      1.000     H          0.124036  
         H51       1.0000    0.06340   0.89120   0.55570   Biso      1.000     H          0.108263  
         H52       1.0000    0.07860   0.06230   0.40650   Biso      1.000     H          0.112674  
         H53       1.0000    0.39100   0.56200   0.01900   Biso      1.000     H          0.46366   
         H54       1.0000    0.62510   0.88590   0.77700   Biso      1.000     H          0.124719  
         H55       1.0000    0.40490   0.22320   0.15370   Biso      1.000     H          0.121658  
         H56       1.0000    0.93660   0.39120   0.94430   Biso      1.000     H          0.108263  
         O1        1.0000    0.41880   0.53915   0.98710   Biso      1.000     O          -0.932837           
         O2        1.0000    0.13330   0.15826   0.85350   Biso      1.000     O          -0.532214           
         O3        1.0000    0.04220   0.01274   0.13956   Biso      1.000     O          -0.609784           
         O4        1.0000    0.28320   0.39030   0.48920   Biso      1.000     O          -0.582386           
         O5        1.0000    0.28120   0.47950   0.40270   Biso      1.000     O          -0.582923           
         O6        1.0000    0.13330   0.34174   0.35350   Biso      1.000     O          -0.532214           
         O7        1.0000    0.98550   0.34120   0.38870   Biso      1.000     O          -0.598646           
         O8        1.0000    0.91880   0.96085   0.01290   Biso      1.000     O          -0.932837           
         O9        1.0000    0.10310   0.51450   0.31989   Biso      1.000     O          -0.534879           
         O10       1.0000    0.95780   0.51274   0.36044   Biso      1.000     O          -0.609783           
         O11       1.0000    0.71680   0.89030   0.01080   Biso      1.000     O          -0.582387           
         O12       1.0000    0.71880   0.97950   0.09730   Biso      1.000     O          -0.582923           
         O13       1.0000    0.86670   0.84174   0.14650   Biso      1.000     O          -0.532215           
         O14       1.0000    0.01450   0.84120   0.11130   Biso      1.000     O          -0.598646           
         O15       1.0000    0.10310   0.98550   0.81989   Biso      1.000     O          -0.53488  
         O16       1.0000    0.95780   0.98726   0.86044   Biso      1.000     O          -0.609784           
         O17       1.0000    0.71680   0.60970   0.51080   Biso      1.000     O          -0.582386           
         O18       1.0000    0.71880   0.52050   0.59730   Biso      1.000     O          -0.582923           
         O19       1.0000    0.86670   0.65826   0.64650   Biso      1.000     O          -0.532215           
         O20       1.0000    0.01450   0.65880   0.61130   Biso      1.000     O          -0.598646           
         O21       1.0000    0.08120   0.03915   0.98710   Biso      1.000     O          -0.932838           
         O22       1.0000    0.89690   0.48550   0.68011   Biso      1.000     O          -0.53488  
         O23       1.0000    0.04220   0.48726   0.63956   Biso      1.000     O          -0.609784           
         O24       1.0000    0.28320   0.10970   0.98920   Biso      1.000     O          -0.582386           
         O25       1.0000    0.28120   0.02050   0.90270   Biso      1.000     O          -0.582923           
         O26       1.0000    0.98550   0.15880   0.88870   Biso      1.000     O          -0.598646           
         O27       1.0000    0.91880   0.53915   0.51290   Biso      1.000     O          -0.932838           
         O28       1.0000    0.08120   0.46085   0.48710   Biso      1.000     O          -0.932838           
         O29       1.0000    0.58120   0.46085   0.01290   Biso      1.000     O          -0.932837           
         O30       1.0000    0.21880   0.97950   0.40270   Biso      1.000     O          -0.582923           
         O31       1.0000    0.21680   0.89030   0.48920   Biso      1.000     O          -0.582386           
         O32       1.0000    0.45780   0.51274   0.13956   Biso      1.000     O          -0.609784           
         O33       1.0000    0.60310   0.51450   0.18011   Biso      1.000     O          -0.53488  
         O34       1.0000    0.41880   0.96085   0.48710   Biso      1.000     O          -0.932838           
         O35       1.0000    0.48550   0.34120   0.11130   Biso      1.000     O          -0.598646           
         O36       1.0000    0.63330   0.34174   0.14650   Biso      1.000     O          -0.532215           
         O37       1.0000    0.78120   0.47950   0.09730   Biso      1.000     O          -0.582923           
         O38       1.0000    0.78320   0.39030   0.01080   Biso      1.000     O          -0.582386           
         O39       1.0000    0.54220   0.01274   0.36044   Biso      1.000     O          -0.609784           
         O40       1.0000    0.39690   0.01450   0.31989   Biso      1.000     O          -0.534879           
         O41       1.0000    0.48550   0.15880   0.61130   Biso      1.000     O          -0.598646           
         O42       1.0000    0.63330   0.15826   0.64650   Biso      1.000     O          -0.532214           
         O43       1.0000    0.78120   0.02050   0.59730   Biso      1.000     O          -0.582923           
         O44       1.0000    0.36670   0.84174   0.35350   Biso      1.000     O          -0.532215           
         O45       1.0000    0.78320   0.10970   0.51080   Biso      1.000     O          -0.582386           
         O46       1.0000    0.39690   0.48550   0.81989   Biso      1.000     O          -0.534879           
         O47       1.0000    0.89690   0.01450   0.18011   Biso      1.000     O          -0.53488  
         O48       1.0000    0.54220   0.48726   0.86044   Biso      1.000     O          -0.609783           
         O49       1.0000    0.45780   0.98726   0.63956   Biso      1.000     O          -0.609783           
         O50       1.0000    0.21680   0.60970   0.98920   Biso      1.000     O          -0.582386           
         O51       1.0000    0.60310   0.98550   0.68011   Biso      1.000     O          -0.534879           
         O52       1.0000    0.36670   0.65826   0.85350   Biso      1.000     O          -0.532214           
         O53       1.0000    0.51450   0.65880   0.88870   Biso      1.000     O          -0.598646           
         O54       1.0000    0.58120   0.03915   0.51290   Biso      1.000     O          -0.932838           
         O55       1.0000    0.21880   0.52050   0.90270   Biso      1.000     O          -0.582923           
         O56       1.0000    0.51450   0.84120   0.38870   Biso      1.000     O          -0.598646           
         Zn1       1.0000    0.34670   0.55388   0.89756   Biso      1.000     Zn          0.943977  
         Zn2       1.0000    0.55479   0.56172   0.95225   Biso      1.000     Zn          1.122499  
         Zn3       1.0000    0.65330   0.05388   0.60244   Biso      1.000     Zn          0.943976  
         Zn4       1.0000    0.44521   0.06172   0.54775   Biso      1.000     Zn          1.1225    
         Zn5       1.0000    0.65330   0.44612   0.10244   Biso      1.000     Zn          0.943977  
         Zn6       1.0000    0.44521   0.43828   0.04775   Biso      1.000     Zn          1.1225    
         Zn7       1.0000    0.34670   0.94612   0.39756   Biso      1.000     Zn          0.943977  
         Zn8       1.0000    0.94521   0.43828   0.45225   Biso      1.000     Zn          1.1225    
         Zn9       1.0000    0.94521   0.06172   0.95225   Biso      1.000     Zn          1.122499  
         Zn10      1.0000    0.15330   0.05388   0.89756   Biso      1.000     Zn          0.943977  
         Zn11      1.0000    0.05479   0.56172   0.54775   Biso      1.000     Zn          1.1225    
         Zn12      1.0000    0.84670   0.55388   0.60244   Biso      1.000     Zn          0.943977  
         Zn13      1.0000    0.05479   0.93828   0.04775   Biso      1.000     Zn          1.1225    
         Zn14      1.0000    0.84670   0.94612   0.10244   Biso      1.000     Zn          0.943976  
         Zn15      1.0000    0.15330   0.44612   0.39756   Biso      1.000     Zn          0.943976  
         Zn16      1.0000    0.55479   0.93828   0.45225   Biso      1.000     Zn          1.1225 