
##########################################################################
#               Crystallographic Information Format file
#               Produced by PyCifRW module
#
#  This is a CIF file.  CIF has been adopted by the International
#  Union of Crystallography as the standard for data archiving and
#  transmission.
#
#  For information on this file format, follow the CIF links at
#  http://www.iucr.org
##########################################################################

data_image0

_cell_length_a                          15.1
_cell_length_b                          15.677
_cell_length_c                          15.677
_cell_angle_alpha                       120
_cell_angle_beta                        90
_cell_angle_gamma                       90
_symmetry_space_group_name_H-M          'P 1'
_symmetry_int_tables_number             1
loop_
  _symmetry_equiv_pos_as_xyz
         'x, y, z' 
loop_
  _atom_site_label
  _atom_site_occupancy
  _atom_site_fract_x
  _atom_site_fract_y
  _atom_site_fract_z
  _atom_site_thermal_displace_type
  _atom_site_B_iso_or_equiv
  _atom_site_type_symbol
  _atom_site_charge
         C1        1.0000    0.19426   0.67837   0.78489   Biso      1.000     C          -0.138428           
         C2        1.0000    0.13906   0.48658   0.35256   Biso      1.000     C          0.597313  
         C3        1.0000    0.19694   0.42361   0.26469   Biso      1.000     C          0.13456600000000002           
         C4        1.0000    0.19426   0.32163   0.21511   Biso      1.000     C          -0.138428           
         C5        1.0000    0.13906   0.64744   0.13402   Biso      1.000     C          0.597278  
         C6        1.0000    0.19694   0.73531   0.15892   Biso      1.000     C          0.134698  
         C7        1.0000    0.19426   0.78489   0.10652   Biso      1.000     C          -0.138453           
         C8        1.0000    0.63906   0.35256   0.48658   Biso      1.000     C          0.597316  
         C9        1.0000    0.69694   0.26469   0.42361   Biso      1.000     C          0.134568  
         C10       1.0000    0.69426   0.21511   0.32163   Biso      1.000     C          -0.138426           
         C11       1.0000    0.63906   0.13402   0.64744   Biso      1.000     C          0.597314  
         C12       1.0000    0.69694   0.15892   0.73531   Biso      1.000     C          0.13456600000000002           
         C13       1.0000    0.69426   0.10652   0.78489   Biso      1.000     C          -0.138428           
         C14       1.0000    0.19426   0.89348   0.67837   Biso      1.000     C          -0.138426           
         C15       1.0000    0.63906   0.51342   0.86598   Biso      1.000     C          0.5972770000000001  
         C16       1.0000    0.69426   0.67837   0.89348   Biso      1.000     C          -0.138453           
         C17       1.0000    0.63906   0.64744   0.51342   Biso      1.000     C          0.597316  
         C18       1.0000    0.69694   0.73531   0.57639   Biso      1.000     C          0.134568  
         C19       1.0000    0.69426   0.78489   0.67837   Biso      1.000     C          -0.138426           
         C20       1.0000    0.63906   0.86598   0.35256   Biso      1.000     C          0.597314  
         C21       1.0000    0.69694   0.84108   0.26469   Biso      1.000     C          0.13456600000000002           
         C22       1.0000    0.69426   0.89348   0.21511   Biso      1.000     C          -0.138428           
         C23       1.0000    0.63906   0.48658   0.13402   Biso      1.000     C          0.597278  
         C24       1.0000    0.69694   0.42361   0.15892   Biso      1.000     C          0.134698  
         C25       1.0000    0.69426   0.32163   0.10652   Biso      1.000     C          -0.138454           
         C26       1.0000    0.86094   0.86598   0.51342   Biso      1.000     C          0.597316  
         C27       1.0000    0.80306   0.84108   0.57639   Biso      1.000     C          0.134568  
         C28       1.0000    0.69694   0.57639   0.84108   Biso      1.000     C          0.134698  
         C29       1.0000    0.80574   0.89348   0.67837   Biso      1.000     C          -0.138426           
         C30       1.0000    0.19694   0.84108   0.57639   Biso      1.000     C          0.134568  
         C31       1.0000    0.19426   0.21511   0.89348   Biso      1.000     C          -0.138453           
         C32       1.0000    0.36094   0.64744   0.51342   Biso      1.000     C          0.597316  
         C33       1.0000    0.30306   0.73531   0.57639   Biso      1.000     C          0.134568  
         C34       1.0000    0.30574   0.78489   0.67837   Biso      1.000     C          -0.138426           
         C35       1.0000    0.36094   0.86598   0.35256   Biso      1.000     C          0.597314  
         C36       1.0000    0.30306   0.84108   0.26469   Biso      1.000     C          0.13456600000000002           
         C37       1.0000    0.30574   0.89348   0.21511   Biso      1.000     C          -0.138428           
         C38       1.0000    0.36094   0.48658   0.13402   Biso      1.000     C          0.5972770000000001  
         C39       1.0000    0.30306   0.42361   0.15892   Biso      1.000     C          0.134698  
         C40       1.0000    0.30574   0.32163   0.10652   Biso      1.000     C          -0.138453           
         C41       1.0000    0.36094   0.35256   0.48658   Biso      1.000     C          0.597316  
         C42       1.0000    0.30306   0.26469   0.42361   Biso      1.000     C          0.134568  
         C43       1.0000    0.30574   0.21511   0.32163   Biso      1.000     C          -0.138426           
         C44       1.0000    0.13906   0.86598   0.51342   Biso      1.000     C          0.597316  
         C45       1.0000    0.36094   0.13402   0.64744   Biso      1.000     C          0.597314  
         C46       1.0000    0.30574   0.10652   0.78489   Biso      1.000     C          -0.138428           
         C47       1.0000    0.36094   0.51342   0.86598   Biso      1.000     C          0.5972770000000001  
         C48       1.0000    0.30306   0.57639   0.84108   Biso      1.000     C          0.134698  
         C49       1.0000    0.30574   0.67837   0.89348   Biso      1.000     C          -0.138454           
         C50       1.0000    0.13906   0.13402   0.48658   Biso      1.000     C          0.597316  
         C51       1.0000    0.19694   0.15892   0.42361   Biso      1.000     C          0.134568  
         C52       1.0000    0.19426   0.10652   0.32163   Biso      1.000     C          -0.138426           
         C53       1.0000    0.13906   0.51342   0.64744   Biso      1.000     C          0.597313  
         C54       1.0000    0.19694   0.57639   0.73531   Biso      1.000     C          0.13456600000000002           
         C55       1.0000    0.75000   0.13525   0.27050   Biso      1.000     C          -0.052012           
         C56       1.0000    0.13906   0.35256   0.86598   Biso      1.000     C          0.597278  
         C57       1.0000    0.19694   0.26469   0.84108   Biso      1.000     C          0.134698  
         C58       1.0000    0.30306   0.15892   0.73531   Biso      1.000     C          0.13456600000000002           
         C59       1.0000    0.86094   0.48658   0.35256   Biso      1.000     C          0.597313  
         C60       1.0000    0.80306   0.42361   0.26469   Biso      1.000     C          0.13456600000000002           
         C61       1.0000    0.80574   0.32163   0.21511   Biso      1.000     C          -0.138428           
         C62       1.0000    0.25000   0.13525   0.27050   Biso      1.000     C          -0.05201  
         C63       1.0000    0.25000   0.72950   0.86475   Biso      1.000     C          -0.052019           
         C64       1.0000    0.25000   0.13525   0.86475   Biso      1.000     C          -0.052019           
         C65       1.0000    0.25000   0.86475   0.72950   Biso      1.000     C          -0.05201  
         C66       1.0000    0.25000   0.27050   0.13525   Biso      1.000     C          -0.052020000000000004         
         C67       1.0000    0.25000   0.86475   0.13525   Biso      1.000     C          -0.052020000000000004         
         C68       1.0000    0.75000   0.86475   0.72950   Biso      1.000     C          -0.05201  
         C69       1.0000    0.75000   0.27050   0.13525   Biso      1.000     C          -0.052019           
         C70       1.0000    0.75000   0.86475   0.13525   Biso      1.000     C          -0.052021000000000005         
         C71       1.0000    0.75000   0.13525   0.86475   Biso      1.000     C          -0.052021000000000005         
         C72       1.0000    0.80574   0.21511   0.89348   Biso      1.000     C          -0.138452           
         C73       1.0000    0.75000   0.72950   0.86475   Biso      1.000     C          -0.052021000000000005         
         C74       1.0000    0.80306   0.26469   0.84108   Biso      1.000     C          0.134698  
         C75       1.0000    0.86094   0.64744   0.13402   Biso      1.000     C          0.597278  
         C76       1.0000    0.80306   0.73531   0.15892   Biso      1.000     C          0.134698  
         C77       1.0000    0.80574   0.78489   0.10652   Biso      1.000     C          -0.138452           
         C78       1.0000    0.86094   0.13402   0.48658   Biso      1.000     C          0.597316  
         C79       1.0000    0.80306   0.15892   0.42361   Biso      1.000     C          0.134568  
         C80       1.0000    0.80574   0.10652   0.32163   Biso      1.000     C          -0.138425           
         C81       1.0000    0.86094   0.51342   0.64744   Biso      1.000     C          0.597313  
         C82       1.0000    0.80306   0.57639   0.73531   Biso      1.000     C          0.13456600000000002           
         C83       1.0000    0.80574   0.67837   0.78489   Biso      1.000     C          -0.138426           
         C84       1.0000    0.86094   0.35256   0.86598   Biso      1.000     C          0.597278  
         H1        1.0000    0.65600   0.05340   0.76500   Biso      1.000     H          0.126947  
         H2        1.0000    0.65600   0.71160   0.94660   Biso      1.000     H          0.126948  
         H3        1.0000    0.65600   0.76500   0.71160   Biso      1.000     H          0.12695399999999998           
         H4        1.0000    0.65600   0.94660   0.23500   Biso      1.000     H          0.126947  
         H5        1.0000    0.65600   0.28840   0.05340   Biso      1.000     H          0.126948  
         H6        1.0000    0.25000   0.10100   0.20200   Biso      1.000     H          0.10049   
         H7        1.0000    0.84400   0.28840   0.23500   Biso      1.000     H          0.126947  
         H8        1.0000    0.84400   0.76500   0.05340   Biso      1.000     H          0.126948  
         H9        1.0000    0.84400   0.05340   0.28840   Biso      1.000     H          0.12695399999999998           
         H10       1.0000    0.65600   0.23500   0.28840   Biso      1.000     H          0.12695399999999998           
         H11       1.0000    0.84400   0.23500   0.94660   Biso      1.000     H          0.126948  
         H12       1.0000    0.84400   0.94660   0.71160   Biso      1.000     H          0.12695399999999998           
         H13       1.0000    0.84400   0.71160   0.76500   Biso      1.000     H          0.126947  
         H14       1.0000    0.15600   0.76500   0.05340   Biso      1.000     H          0.126948  
         H15       1.0000    0.15600   0.94660   0.71160   Biso      1.000     H          0.12695399999999998           
         H16       1.0000    0.25000   0.79800   0.89900   Biso      1.000     H          0.100485  
         H17       1.0000    0.25000   0.10100   0.89900   Biso      1.000     H          0.100485  
         H18       1.0000    0.25000   0.89900   0.79800   Biso      1.000     H          0.100491  
         H19       1.0000    0.25000   0.20200   0.10100   Biso      1.000     H          0.100486  
         H20       1.0000    0.25000   0.89900   0.10100   Biso      1.000     H          0.100486  
         H21       1.0000    0.75000   0.89900   0.79800   Biso      1.000     H          0.10049   
         H22       1.0000    0.75000   0.20200   0.10100   Biso      1.000     H          0.100485  
         H23       1.0000    0.75000   0.89900   0.10100   Biso      1.000     H          0.100485  
         H24       1.0000    0.75000   0.10100   0.20200   Biso      1.000     H          0.100491  
         H25       1.0000    0.75000   0.79800   0.89900   Biso      1.000     H          0.100486  
         H26       1.0000    0.75000   0.10100   0.89900   Biso      1.000     H          0.100486  
         H27       1.0000    0.34400   0.76500   0.71160   Biso      1.000     H          0.12695399999999998           
         H28       1.0000    0.34400   0.94660   0.23500   Biso      1.000     H          0.126947  
         H29       1.0000    0.34400   0.28840   0.05340   Biso      1.000     H          0.126948  
         H30       1.0000    0.34400   0.23500   0.28840   Biso      1.000     H          0.12695399999999998           
         H31       1.0000    0.34400   0.71160   0.94660   Biso      1.000     H          0.126948  
         H32       1.0000    0.15600   0.05340   0.28840   Biso      1.000     H          0.12695399999999998           
         H33       1.0000    0.15600   0.71160   0.76500   Biso      1.000     H          0.126947  
         H34       1.0000    0.15600   0.23500   0.94660   Biso      1.000     H          0.126948  
         H35       1.0000    0.15600   0.28840   0.23500   Biso      1.000     H          0.126947  
         H36       1.0000    0.34400   0.05340   0.76500   Biso      1.000     H          0.126947  
         La1       1.0000    0.75000   0.33333   0.66666   Biso      1.000     La          1.701672  
         La2       1.0000    0.25000   0.33333   0.66666   Biso      1.000     La          1.701673  
         La3       1.0000    0.25000   0.66667   0.33334   Biso      1.000     La          1.701672  
         La4       1.0000    0.75000   0.66667   0.33334   Biso      1.000     La          1.701672  
         Mg1       1.0000    0.50000   0.50000   0.50000   Biso      1.000     Mg          1.457143  
         Mg2       1.0000    0.50000   0.00000   0.50000   Biso      1.000     Mg          1.457141  
         Mg3       1.0000    0.50000   0.50000   0.00000   Biso      1.000     Mg          1.457144  
         Mg4       1.0000    0.00000   0.00000   0.50000   Biso      1.000     Mg          1.457144  
         Mg5       1.0000    0.00000   0.50000   0.50000   Biso      1.000     Mg          1.457142  
         Mg6       1.0000    0.00000   0.50000   0.00000   Biso      1.000     Mg          1.457144  
         N1        1.0000    0.25000   0.23653   0.47306   Biso      1.000     N          -0.298063           
         N2        1.0000    0.25000   0.52695   0.76348   Biso      1.000     N          -0.298203           
         N3        1.0000    0.25000   0.23653   0.76348   Biso      1.000     N          -0.298203           
         N4        1.0000    0.25000   0.76347   0.52694   Biso      1.000     N          -0.298063           
         N5        1.0000    0.25000   0.47305   0.23652   Biso      1.000     N          -0.298203           
         N6        1.0000    0.25000   0.76347   0.23652   Biso      1.000     N          -0.298203           
         N7        1.0000    0.75000   0.47305   0.23652   Biso      1.000     N          -0.298203           
         N8        1.0000    0.75000   0.76347   0.23652   Biso      1.000     N          -0.298203           
         N9        1.0000    0.75000   0.23653   0.47306   Biso      1.000     N          -0.298063           
         N10       1.0000    0.75000   0.52695   0.76348   Biso      1.000     N          -0.298203           
         N11       1.0000    0.75000   0.23653   0.76348   Biso      1.000     N          -0.298203           
         N12       1.0000    0.75000   0.76347   0.52694   Biso      1.000     N          -0.298063           
         O1        1.0000    0.14062   0.42149   0.61656   Biso      1.000     O          -0.59847  
         O2        1.0000    0.14062   0.61656   0.19507   Biso      1.000     O          -0.5984659999999999           
         O3        1.0000    0.09461   0.44582   0.38843   Biso      1.000     O          -0.6450130000000001           
         O4        1.0000    0.14062   0.57851   0.38344   Biso      1.000     O          -0.59847  
         O5        1.0000    0.09461   0.94261   0.55418   Biso      1.000     O          -0.645012           
         O6        1.0000    0.14062   0.80493   0.42149   Biso      1.000     O          -0.59847  
         O7        1.0000    0.09461   0.38843   0.94261   Biso      1.000     O          -0.645012           
         O8        1.0000    0.14062   0.38344   0.80493   Biso      1.000     O          -0.5984659999999999           
         O9        1.0000    0.09461   0.55418   0.61157   Biso      1.000     O          -0.6450130000000001           
         O10       1.0000    0.09461   0.05739   0.44582   Biso      1.000     O          -0.645012           
         O11       1.0000    0.35938   0.80493   0.38344   Biso      1.000     O          -0.59847  
         O12       1.0000    0.40539   0.55418   0.94261   Biso      1.000     O          -0.645012           
         O13       1.0000    0.35938   0.42149   0.80493   Biso      1.000     O          -0.5984659999999999           
         O14       1.0000    0.40539   0.05739   0.61157   Biso      1.000     O          -0.6450140000000001           
         O15       1.0000    0.35938   0.19507   0.61656   Biso      1.000     O          -0.59847  
         O16       1.0000    0.40539   0.38843   0.44582   Biso      1.000     O          -0.645012           
         O17       1.0000    0.35938   0.38344   0.57851   Biso      1.000     O          -0.59847  
         O18       1.0000    0.40539   0.44582   0.05739   Biso      1.000     O          -0.6450130000000001           
         O19       1.0000    0.35938   0.57851   0.19507   Biso      1.000     O          -0.5984659999999999           
         O20       1.0000    0.40539   0.94261   0.38843   Biso      1.000     O          -0.6450140000000001           
         O21       1.0000    0.09461   0.61157   0.05739   Biso      1.000     O          -0.645012           
         O22       1.0000    0.14062   0.19507   0.57851   Biso      1.000     O          -0.59847  
         O23       1.0000    0.64062   0.38344   0.57851   Biso      1.000     O          -0.59847  
         O24       1.0000    0.64062   0.57851   0.19507   Biso      1.000     O          -0.5984659999999999           
         O25       1.0000    0.64062   0.19507   0.61656   Biso      1.000     O          -0.59847  
         O26       1.0000    0.90539   0.38843   0.94261   Biso      1.000     O          -0.645012           
         O27       1.0000    0.85938   0.38344   0.80493   Biso      1.000     O          -0.5984659999999999           
         O28       1.0000    0.90539   0.55418   0.61157   Biso      1.000     O          -0.6450130000000001           
         O29       1.0000    0.85938   0.42149   0.61656   Biso      1.000     O          -0.59847  
         O30       1.0000    0.90539   0.05739   0.44582   Biso      1.000     O          -0.645012           
         O31       1.0000    0.85938   0.19507   0.57851   Biso      1.000     O          -0.59847  
         O32       1.0000    0.90539   0.61157   0.05739   Biso      1.000     O          -0.645012           
         O33       1.0000    0.85938   0.61656   0.19507   Biso      1.000     O          -0.5984659999999999           
         O34       1.0000    0.90539   0.44582   0.38843   Biso      1.000     O          -0.6450140000000001           
         O35       1.0000    0.85938   0.57851   0.38344   Biso      1.000     O          -0.59847  
         O36       1.0000    0.90539   0.94261   0.55418   Biso      1.000     O          -0.6450130000000001           
         O37       1.0000    0.85938   0.80493   0.42149   Biso      1.000     O          -0.59847  
         O38       1.0000    0.59461   0.44582   0.05739   Biso      1.000     O          -0.6450130000000001           
         O39       1.0000    0.40539   0.61157   0.55418   Biso      1.000     O          -0.645012           
         O40       1.0000    0.59461   0.94261   0.38843   Biso      1.000     O          -0.6450140000000001           
         O41       1.0000    0.64062   0.80493   0.38344   Biso      1.000     O          -0.59847  
         O42       1.0000    0.59461   0.61157   0.55418   Biso      1.000     O          -0.645012           
         O43       1.0000    0.64062   0.61656   0.42149   Biso      1.000     O          -0.59847  
         O44       1.0000    0.59461   0.55418   0.94261   Biso      1.000     O          -0.6450130000000001           
         O45       1.0000    0.64062   0.42149   0.80493   Biso      1.000     O          -0.5984659999999999           
         O46       1.0000    0.59461   0.05739   0.61157   Biso      1.000     O          -0.6450140000000001           
         O47       1.0000    0.59461   0.38843   0.44582   Biso      1.000     O          -0.645012           
         O48       1.0000    0.35938   0.61656   0.42149   Biso      1.000     O          -0.59847 