
##########################################################################
#               Crystallographic Information Format file
#               Produced by PyCifRW module
#
#  This is a CIF file.  CIF has been adopted by the International
#  Union of Crystallography as the standard for data archiving and
#  transmission.
#
#  For information on this file format, follow the CIF links at
#  http://www.iucr.org
##########################################################################

data_image0

_cell_length_a                          16.1402
_cell_length_b                          16.3639
_cell_length_c                          16.3639
_cell_angle_alpha                       75.9239
_cell_angle_beta                        60.4512
_cell_angle_gamma                       60.4512
_symmetry_space_group_name_H-M          'P 1'
_symmetry_int_tables_number             1
loop_
  _symmetry_equiv_pos_as_xyz
         'x, y, z' 
loop_
  _atom_site_label
  _atom_site_occupancy
  _atom_site_fract_x
  _atom_site_fract_y
  _atom_site_fract_z
  _atom_site_thermal_displace_type
  _atom_site_B_iso_or_equiv
  _atom_site_type_symbol
  _atom_site_charge
         C1        1.0000    0.43470   0.94170   0.33750   Biso      1.000     C          -0.003092           
         C2        1.0000    0.93480   0.17590   0.95010   Biso      1.000     C          0.640505  
         C3        1.0000    0.94840   0.41210   0.74090   Biso      1.000     C          0.218598  
         C4        1.0000    0.72750   0.46900   0.70460   Biso      1.000     C          0.653711  
         C5        1.0000    0.79890   0.45080   0.74520   Biso      1.000     C          0.014808  
         C6        1.0000    0.78610   0.44170   0.83750   Biso      1.000     C          -0.006497           
         C7        1.0000    0.69750   0.45300   0.93060   Biso      1.000     C          0.624433  
         C8        1.0000    0.93400   0.22130   0.71430   Biso      1.000     C          0.219349  
         C9        1.0000    0.03440   0.16900   0.87120   Biso      1.000     C          -0.035495           
         C10       1.0000    0.90910   0.22170   0.51230   Biso      1.000     C          0.65337   
         C11       1.0000    0.90560   0.12880   0.66900   Biso      1.000     C          -0.034144           
         C12       1.0000    0.88490   0.04990   0.67590   Biso      1.000     C          0.641969  
         C13       1.0000    0.68930   0.25910   0.91210   Biso      1.000     C          0.216706  
         C14       1.0000    0.43210   0.29540   0.96900   Biso      1.000     C          0.652407  
         C15       1.0000    0.54410   0.25480   0.95080   Biso      1.000     C          0.01434   
         C16       1.0000    0.62360   0.16250   0.94170   Biso      1.000     C          -0.006007           
         C17       1.0000    0.62810   0.06940   0.95300   Biso      1.000     C          0.62187   
         C18       1.0000    0.91240   0.20070   0.60230   Biso      1.000     C          -0.009237           
         C19       1.0000    0.36960   0.27870   0.78570   Biso      1.000     C          0.219281  
         C20       1.0000    0.11310   0.10230   0.79930   Biso      1.000     C          -0.008354           
         C21       1.0000    0.15530   0.21430   0.77870   Biso      1.000     C          0.220458  
         C22       1.0000    0.88930   0.54990   0.17590   Biso      1.000     C          0.638123  
         C23       1.0000    0.63950   0.75910   0.41210   Biso      1.000     C          0.217823  
         C24       1.0000    0.80350   0.79540   0.46900   Biso      1.000     C          0.652222  
         C25       1.0000    0.75030   0.75480   0.45080   Biso      1.000     C          0.015238  
         C26       1.0000    0.77220   0.66250   0.44170   Biso      1.000     C          -0.005527           
         C27       1.0000    0.84950   0.56940   0.45300   Biso      1.000     C          0.620369  
         C28       1.0000    0.64830   0.28570   0.72130   Biso      1.000     C          0.220848  
         C29       1.0000    0.13080   0.01230   0.77830   Biso      1.000     C          0.655522  
         C30       1.0000    0.42140   0.48770   0.72170   Biso      1.000     C          0.655865  
         C31       1.0000    0.57460   0.33100   0.62880   Biso      1.000     C          -0.030329           
         C32       1.0000    0.56080   0.32410   0.54990   Biso      1.000     C          0.635613  
         C33       1.0000    0.60140   0.08790   0.75910   Biso      1.000     C          0.218399  
         C34       1.0000    0.40110   0.03100   0.79540   Biso      1.000     C          0.652325  
         C35       1.0000    0.49490   0.04920   0.75480   Biso      1.000     C          0.015136  
         C36       1.0000    0.56530   0.05830   0.66250   Biso      1.000     C          -0.003092           
         C37       1.0000    0.58110   0.04700   0.56940   Biso      1.000     C          0.620029  
         C38       1.0000    0.51470   0.39770   0.70070   Biso      1.000     C          -0.010862           
         C39       1.0000    0.14310   0.27830   0.98770   Biso      1.000     C          0.654663  
         C40       1.0000    0.21540   0.29930   0.89770   Biso      1.000     C          -0.009904           
         C41       1.0000    0.20340   0.37120   0.83100   Biso      1.000     C          -0.032766           
         C42       1.0000    0.27250   0.53100   0.29540   Biso      1.000     C          0.653711  
         C43       1.0000    0.05160   0.58790   0.25910   Biso      1.000     C          0.218598  
         C44       1.0000    0.06520   0.82410   0.04990   Biso      1.000     C          0.640505  
         C45       1.0000    0.96560   0.83100   0.12880   Biso      1.000     C          -0.035495           
         C46       1.0000    0.88690   0.89770   0.20070   Biso      1.000     C          -0.008354           
         C47       1.0000    0.86920   0.98770   0.22170   Biso      1.000     C          0.655522  
         C48       1.0000    0.84470   0.78570   0.22130   Biso      1.000     C          0.220458  
         C49       1.0000    0.20110   0.54920   0.25480   Biso      1.000     C          0.014808  
         C50       1.0000    0.41890   0.95300   0.43060   Biso      1.000     C          0.620029  
         C51       1.0000    0.59890   0.96900   0.20460   Biso      1.000     C          0.652326  
         C52       1.0000    0.39860   0.91210   0.24090   Biso      1.000     C          0.218399  
         C53       1.0000    0.43920   0.67590   0.45010   Biso      1.000     C          0.635613  
         C54       1.0000    0.42540   0.66900   0.37120   Biso      1.000     C          -0.030329           
         C55       1.0000    0.48530   0.60230   0.29930   Biso      1.000     C          -0.010862           
         C56       1.0000    0.57860   0.51230   0.27830   Biso      1.000     C          0.655865  
         C57       1.0000    0.35170   0.71430   0.27870   Biso      1.000     C          0.220848  
         C58       1.0000    0.50510   0.95080   0.24520   Biso      1.000     C          0.015136  
         C59       1.0000    0.21390   0.55830   0.16250   Biso      1.000     C          -0.006497           
         C60       1.0000    0.30250   0.54700   0.06940   Biso      1.000     C          0.624433  
         C61       1.0000    0.06600   0.77870   0.28570   Biso      1.000     C          0.219349  
         C62       1.0000    0.11070   0.45010   0.82410   Biso      1.000     C          0.638123  
         C63       1.0000    0.36050   0.24090   0.58790   Biso      1.000     C          0.217823  
         C64       1.0000    0.19650   0.20460   0.53100   Biso      1.000     C          0.652222  
         C65       1.0000    0.24970   0.24520   0.54920   Biso      1.000     C          0.015238  
         C66       1.0000    0.22780   0.33750   0.55830   Biso      1.000     C          -0.005527           
         C67       1.0000    0.15050   0.43060   0.54700   Biso      1.000     C          0.620369  
         C68       1.0000    0.85690   0.72170   0.01230   Biso      1.000     C          0.654663  
         C69       1.0000    0.63040   0.72130   0.21430   Biso      1.000     C          0.219281  
         C70       1.0000    0.37190   0.93060   0.04700   Biso      1.000     C          0.62187   
         C71       1.0000    0.37640   0.83750   0.05830   Biso      1.000     C          -0.006007           
         C72       1.0000    0.45590   0.74520   0.04920   Biso      1.000     C          0.014341  
         C73       1.0000    0.56790   0.70460   0.03100   Biso      1.000     C          0.652407  
         C74       1.0000    0.31070   0.74090   0.08790   Biso      1.000     C          0.216706  
         C75       1.0000    0.11510   0.95010   0.32410   Biso      1.000     C          0.641969  
         C76       1.0000    0.09440   0.87120   0.33100   Biso      1.000     C          -0.034144           
         C77       1.0000    0.08760   0.79930   0.39770   Biso      1.000     C          -0.009237           
         C78       1.0000    0.09090   0.77830   0.48770   Biso      1.000     C          0.65337   
         C79       1.0000    0.79660   0.62880   0.16900   Biso      1.000     C          -0.032766           
         C80       1.0000    0.78460   0.70070   0.10230   Biso      1.000     C          -0.009904           
         Gd1       1.0000    0.29276   0.46991   0.62207   Biso      1.000     Gd          1.995003  
         Gd2       1.0000    0.70724   0.53009   0.37793   Biso      1.000     Gd          1.995003  
         Gd3       1.0000    0.35184   0.02150   0.61480   Biso      1.000     Gd          1.973381  
         Gd4       1.0000    0.88474   0.03009   0.87793   Biso      1.000     Gd          1.995671  
         Gd5       1.0000    0.48814   0.47850   0.88520   Biso      1.000     Gd          1.975492  
         Gd6       1.0000    0.91483   0.37793   0.96991   Biso      1.000     Gd          1.995942  
         Gd7       1.0000    0.96664   0.38520   0.52150   Biso      1.000     Gd          1.97407   
         Gd8       1.0000    0.76267   0.12207   0.53009   Biso      1.000     Gd          1.996955  
         Gd9       1.0000    0.37334   0.11480   0.97850   Biso      1.000     Gd          1.974762  
         Gd10      1.0000    0.64816   0.97850   0.38520   Biso      1.000     Gd          1.973381  
         Gd11      1.0000    0.11526   0.96991   0.12207   Biso      1.000     Gd          1.995671  
         Gd12      1.0000    0.51186   0.52150   0.11480   Biso      1.000     Gd          1.975493  
         Gd13      1.0000    0.08517   0.62207   0.03009   Biso      1.000     Gd          1.995942  
         Gd14      1.0000    0.03336   0.61480   0.47850   Biso      1.000     Gd          1.974071  
         Gd15      1.0000    0.23733   0.87793   0.46991   Biso      1.000     Gd          1.996955  
         Gd16      1.0000    0.62666   0.88520   0.02150   Biso      1.000     Gd          1.974762  
         H1        1.0000    0.29500   0.75800   0.26000   Biso      1.000     H          0.075612  
         H2        1.0000    0.36200   0.89600   0.22800   Biso      1.000     H          0.082746  
         H3        1.0000    0.44500   0.26000   0.74200   Biso      1.000     H          0.075446  
         H4        1.0000    0.41000   0.22800   0.60400   Biso      1.000     H          0.082231  
         H5        1.0000    0.81300   0.74200   0.24000   Biso      1.000     H          0.075461  
         H6        1.0000    0.98600   0.60400   0.27200   Biso      1.000     H          0.081092  
         H7        1.0000    0.05300   0.76000   0.24200   Biso      1.000     H          0.075722  
         H8        1.0000    0.55500   0.74000   0.25800   Biso      1.000     H          0.075446  
         H9        1.0000    0.59000   0.77200   0.39600   Biso      1.000     H          0.082231  
         H10       1.0000    0.25800   0.72800   0.10400   Biso      1.000     H          0.083224  
         H11       1.0000    0.63800   0.10400   0.77200   Biso      1.000     H          0.082746  
         H12       1.0000    0.18700   0.25800   0.76000   Biso      1.000     H          0.075461  
         H13       1.0000    0.01400   0.39600   0.72800   Biso      1.000     H          0.081092  
         H14       1.0000    0.94700   0.24000   0.75800   Biso      1.000     H          0.075722  
         H15       1.0000    0.74200   0.27200   0.89600   Biso      1.000     H          0.083224  
         H16       1.0000    0.70500   0.24200   0.74000   Biso      1.000     H          0.075612  
         N1        1.0000    0.69730   0.64240   0.24000   Biso      1.000     N          -0.47294  
         N2        1.0000    0.06960   0.74120   0.36620   Biso      1.000     N          -0.422604           
         N3        1.0000    0.67700   0.75880   0.13380   Biso      1.000     N          -0.421445           
         N4        1.0000    0.28340   0.83210   0.08550   Biso      1.000     N          -0.473338           
         N5        1.0000    0.41350   0.68410   0.06850   Biso      1.000     N          -0.4413   
         N6        1.0000    0.07970   0.85760   0.26000   Biso      1.000     N          -0.472448           
         N7        1.0000    0.11550   0.58550   0.16790   Biso      1.000     N          -0.47371  
         N8        1.0000    0.43580   0.63380   0.24120   Biso      1.000     N          -0.422263           
         N9        1.0000    0.93730   0.76000   0.14240   Biso      1.000     N          -0.471545           
         N10       1.0000    0.81080   0.86620   0.25880   Biso      1.000     N          -0.422341           
         N11       1.0000    0.36890   0.91450   0.33210   Biso      1.000     N          -0.475963           
         N12       1.0000    0.48200   0.93150   0.18410   Biso      1.000     N          -0.443937           
         N13       1.0000    0.33970   0.74000   0.35760   Biso      1.000     N          -0.473356           
         N14       1.0000    0.66610   0.81590   0.43150   Biso      1.000     N          -0.441675           
         N15       1.0000    0.09760   0.56850   0.31590   Biso      1.000     N          -0.441678           
         N16       1.0000    0.70100   0.66790   0.41450   Biso      1.000     N          -0.473924           
         N17       1.0000    0.56420   0.36620   0.75880   Biso      1.000     N          -0.422263           
         N18       1.0000    0.66030   0.26000   0.64240   Biso      1.000     N          -0.473356           
         N19       1.0000    0.33390   0.18410   0.56850   Biso      1.000     N          -0.441675           
         N20       1.0000    0.30270   0.35760   0.76000   Biso      1.000     N          -0.47294  
         N21       1.0000    0.32300   0.24120   0.86620   Biso      1.000     N          -0.421445           
         N22       1.0000    0.71660   0.16790   0.91450   Biso      1.000     N          -0.473338           
         N23       1.0000    0.58650   0.31590   0.93150   Biso      1.000     N          -0.4413   
         N24       1.0000    0.92030   0.14240   0.74000   Biso      1.000     N          -0.472448           
         N25       1.0000    0.29900   0.33210   0.58550   Biso      1.000     N          -0.473924           
         N26       1.0000    0.88450   0.41450   0.83210   Biso      1.000     N          -0.47371  
         N27       1.0000    0.90240   0.43150   0.68410   Biso      1.000     N          -0.441677           
         N28       1.0000    0.06270   0.24000   0.85760   Biso      1.000     N          -0.471545           
         N29       1.0000    0.18920   0.13380   0.74120   Biso      1.000     N          -0.422341           
         N30       1.0000    0.63110   0.08550   0.66790   Biso      1.000     N          -0.475963           
         N31       1.0000    0.51800   0.06850   0.81590   Biso      1.000     N          -0.443937           
         N32       1.0000    0.93040   0.25880   0.63380   Biso      1.000     N          -0.422604           
         O1        1.0000    0.15170   0.95490   0.37330   Biso      1.000     O          -0.653752           
         O2        1.0000    0.61020   0.61680   0.04420   Biso      1.000     O          -0.631119           
         O3        1.0000    0.61540   0.75360   0.00320   Biso      1.000     O          -0.653583           
         O4        1.0000    0.45330   0.94520   0.01360   Biso      1.000     O          -0.71658  
         O5        1.0000    0.27870   0.00040   0.07100   Biso      1.000     O          -0.677331           
         O6        1.0000    0.81320   0.78940   0.96520   Biso      1.000     O          -0.641035           
         O7        1.0000    0.97990   0.54510   0.12670   Biso      1.000     O          -0.651601           
         O8        1.0000    0.87120   0.48640   0.23620   Biso      1.000     O          -0.642161           
         O9        1.0000    0.77120   0.88320   0.45580   Biso      1.000     O          -0.631108           
         O10       1.0000    0.87220   0.74640   0.49680   Biso      1.000     O          -0.653847           
         O11       1.0000    0.91210   0.55480   0.48640   Biso      1.000     O          -0.716369           
         O12       1.0000    0.09380   0.01360   0.26380   Biso      1.000     O          -0.643348           
         O13       1.0000    0.95650   0.67670   0.97850   Biso      1.000     O          -0.675047           
         O14       1.0000    0.11170   0.82330   0.52150   Biso      1.000     O          -0.6735   
         O15       1.0000    0.93500   0.02150   0.17670   Biso      1.000     O          -0.675376           
         O16       1.0000    0.27910   0.57100   0.99960   Biso      1.000     O          -0.677813           
         O17       1.0000    0.39850   0.51360   0.05480   Biso      1.000     O          -0.71769  
         O18       1.0000    0.36900   0.50320   0.24640   Biso      1.000     O          -0.655517           
         O19       1.0000    0.22700   0.54420   0.38320   Biso      1.000     O          -0.63115  
         O20       1.0000    0.10660   0.87330   0.04510   Biso      1.000     O          -0.652652           
         O21       1.0000    0.10740   0.76380   0.98640   Biso      1.000     O          -0.643604           
         O22       1.0000    0.85010   0.49960   0.42900   Biso      1.000     O          -0.675548           
         O23       1.0000    0.77840   0.03480   0.28940   Biso      1.000     O          -0.641539           
         O24       1.0000    0.34970   0.92900   0.50040   Biso      1.000     O          -0.677122           
         O25       1.0000    0.46690   0.98640   0.44520   Biso      1.000     O          -0.714705           
         O26       1.0000    0.61860   0.99680   0.25360   Biso      1.000     O          -0.65406  
         O27       1.0000    0.65440   0.95580   0.11680   Biso      1.000     O          -0.630558           
         O28       1.0000    0.52500   0.62670   0.45490   Biso      1.000     O          -0.651014           
         O29       1.0000    0.35760   0.73620   0.51360   Biso      1.000     O          -0.642428           
         O30       1.0000    0.06780   0.71060   0.53480   Biso      1.000     O          -0.6413   
         O31       1.0000    0.39740   0.53480   0.78940   Biso      1.000     O          -0.642907           
         O32       1.0000    0.14990   0.50040   0.57100   Biso      1.000     O          -0.675548           
         O33       1.0000    0.64240   0.26380   0.48640   Biso      1.000     O          -0.642428           
         O34       1.0000    0.63320   0.47850   0.32330   Biso      1.000     O          -0.674751           
         O35       1.0000    0.08790   0.44520   0.51360   Biso      1.000     O          -0.716369           
         O36       1.0000    0.12780   0.25360   0.50320   Biso      1.000     O          -0.653847           
         O37       1.0000    0.22880   0.11680   0.54420   Biso      1.000     O          -0.631108           
         O38       1.0000    0.02010   0.45490   0.87330   Biso      1.000     O          -0.651601           
         O39       1.0000    0.12880   0.51360   0.76380   Biso      1.000     O          -0.642161           
         O40       1.0000    0.04350   0.32330   0.02150   Biso      1.000     O          -0.675047           
         O41       1.0000    0.18680   0.21060   0.03480   Biso      1.000     O          -0.641035           
         O42       1.0000    0.72130   0.99960   0.92900   Biso      1.000     O          -0.677331           
         O43       1.0000    0.54670   0.05480   0.98640   Biso      1.000     O          -0.71658  
         O44       1.0000    0.38460   0.24640   0.99680   Biso      1.000     O          -0.653583           
         O45       1.0000    0.38980   0.38320   0.95580   Biso      1.000     O          -0.631119           
         O46       1.0000    0.84830   0.04510   0.62670   Biso      1.000     O          -0.653752           
         O47       1.0000    0.90620   0.98640   0.73620   Biso      1.000     O          -0.643348           
         O48       1.0000    0.88830   0.17670   0.47850   Biso      1.000     O          -0.6735   
         O49       1.0000    0.93220   0.28940   0.46520   Biso      1.000     O          -0.6413   
         O50       1.0000    0.72090   0.42900   0.00040   Biso      1.000     O          -0.677813           
         O51       1.0000    0.60150   0.48640   0.94520   Biso      1.000     O          -0.71769  
         O52       1.0000    0.63100   0.49680   0.75360   Biso      1.000     O          -0.655516           
         O53       1.0000    0.77300   0.45580   0.61680   Biso      1.000     O          -0.63115  
         O54       1.0000    0.89340   0.12670   0.95490   Biso      1.000     O          -0.652652           
         O55       1.0000    0.89260   0.23620   0.01360   Biso      1.000     O          -0.643604           
         O56       1.0000    0.06500   0.97850   0.82330   Biso      1.000     O          -0.675376           
         O57       1.0000    0.22160   0.96520   0.71060   Biso      1.000     O          -0.641539           
         O58       1.0000    0.65030   0.07100   0.49960   Biso      1.000     O          -0.677122           
         O59       1.0000    0.53310   0.01360   0.55480   Biso      1.000     O          -0.714705           
         O60       1.0000    0.38140   0.00320   0.74640   Biso      1.000     O          -0.65406  
         O61       1.0000    0.34560   0.04420   0.88320   Biso      1.000     O          -0.630558           
         O62       1.0000    0.47500   0.37330   0.54510   Biso      1.000     O          -0.651014           
         O63       1.0000    0.36680   0.52150   0.67670   Biso      1.000     O          -0.674751           
         O64       1.0000    0.60260   0.46520   0.21060   Biso      1.000     O          -0.642907 