
##########################################################################
#               Crystallographic Information Format file
#               Produced by PyCifRW module
#
#  This is a CIF file.  CIF has been adopted by the International
#  Union of Crystallography as the standard for data archiving and
#  transmission.
#
#  For information on this file format, follow the CIF links at
#  http://www.iucr.org
##########################################################################

data_image0

_cell_length_a                          7.691
_cell_length_b                          10.2147
_cell_length_c                          15.8154
_cell_angle_alpha                       90
_cell_angle_beta                        90
_cell_angle_gamma                       90
_symmetry_space_group_name_H-M          'P 1'
_symmetry_int_tables_number             1
loop_
  _symmetry_equiv_pos_as_xyz
         'x, y, z' 
loop_
  _atom_site_label
  _atom_site_occupancy
  _atom_site_fract_x
  _atom_site_fract_y
  _atom_site_fract_z
  _atom_site_thermal_displace_type
  _atom_site_B_iso_or_equiv
  _atom_site_type_symbol
  _atom_site_charge
         C1        1.0000    0.69290   0.50480   0.02150   Biso      1.000     C          -0.139405           
         C2        1.0000    0.22040   0.37190   0.13930   Biso      1.000     C          -0.520055           
         C3        1.0000    0.42120   0.38750   0.01560   Biso      1.000     C          -0.18238  
         C4        1.0000    0.38490   0.41810   0.09870   Biso      1.000     C          0.21698699999999999           
         C5        1.0000    0.50500   0.49630   0.14300   Biso      1.000     C          -0.18249500000000002          
         C6        1.0000    0.65670   0.53930   0.10470   Biso      1.000     C          -0.017151           
         C7        1.0000    0.57370   0.43070   0.97570   Biso      1.000     C          -0.012877000000000001         
         C8        1.0000    0.78060   0.62370   0.15210   Biso      1.000     C          0.5849770000000001  
         C9        1.0000    0.61070   0.39590   0.88530   Biso      1.000     C          0.630206  
         C10       1.0000    0.38930   0.89590   0.11470   Biso      1.000     C          0.630206  
         C11       1.0000    0.42630   0.93070   0.02430   Biso      1.000     C          -0.012877000000000001         
         C12       1.0000    0.30710   0.00480   0.97850   Biso      1.000     C          -0.139404           
         C13       1.0000    0.34330   0.03930   0.89530   Biso      1.000     C          -0.017151           
         C14       1.0000    0.49500   0.99630   0.85700   Biso      1.000     C          -0.18249500000000002          
         C15       1.0000    0.61510   0.91810   0.90130   Biso      1.000     C          0.216984  
         C16       1.0000    0.21940   0.12370   0.84790   Biso      1.000     C          0.5849770000000001  
         C17       1.0000    0.88930   0.89590   0.38530   Biso      1.000     C          0.630206  
         C18       1.0000    0.92630   0.93070   0.47570   Biso      1.000     C          -0.012877000000000001         
         C19       1.0000    0.80710   0.00480   0.52150   Biso      1.000     C          -0.139405           
         C20       1.0000    0.28060   0.62370   0.34790   Biso      1.000     C          0.5849770000000001  
         C21       1.0000    0.72040   0.37190   0.36070   Biso      1.000     C          -0.520054           
         C22       1.0000    0.92120   0.38750   0.48440   Biso      1.000     C          -0.18238  
         C23       1.0000    0.88490   0.41810   0.40130   Biso      1.000     C          0.21698699999999999           
         C24       1.0000    0.00500   0.49630   0.35700   Biso      1.000     C          -0.18249500000000002          
         C25       1.0000    0.15670   0.53930   0.39530   Biso      1.000     C          -0.017152           
         C26       1.0000    0.19290   0.50480   0.47850   Biso      1.000     C          -0.139403           
         C27       1.0000    0.07370   0.43070   0.52430   Biso      1.000     C          -0.012877000000000001         
         C28       1.0000    0.11070   0.39590   0.61470   Biso      1.000     C          0.630206  
         C29       1.0000    0.71940   0.12370   0.65210   Biso      1.000     C          0.584976  
         C30       1.0000    0.27960   0.87190   0.63930   Biso      1.000     C          -0.520054           
         C31       1.0000    0.07880   0.88750   0.51560   Biso      1.000     C          -0.18238  
         C32       1.0000    0.11510   0.91810   0.59870   Biso      1.000     C          0.21698699999999999           
         C33       1.0000    0.99500   0.99630   0.64300   Biso      1.000     C          -0.18249500000000002          
         C34       1.0000    0.84330   0.03930   0.60470   Biso      1.000     C          -0.017151           
         C35       1.0000    0.57880   0.88750   0.98440   Biso      1.000     C          -0.182377           
         C36       1.0000    0.77960   0.87190   0.86070   Biso      1.000     C          -0.520055           
         Cd1       1.0000    0.96722   0.29083   0.78848   Biso      1.000     Cd          1.068859  
         Cd2       1.0000    0.03278   0.79083   0.21152   Biso      1.000     Cd          1.068859  
         Cd3       1.0000    0.46722   0.29083   0.71152   Biso      1.000     Cd          1.068859  
         Cd4       1.0000    0.53278   0.79083   0.28848   Biso      1.000     Cd          1.068859  
         H1        1.0000    0.65170   0.44600   0.34410   Biso      1.000     H          0.170544  
         H2        1.0000    0.20330   0.03110   0.00350   Biso      1.000     H          0.12748099999999998           
         H3        1.0000    0.51780   0.01950   0.80130   Biso      1.000     H          0.116895  
         H4        1.0000    0.74790   0.32030   0.31170   Biso      1.000     H          0.168067  
         H5        1.0000    0.84410   0.81960   0.90020   Biso      1.000     H          0.170126  
         H6        1.0000    0.84830   0.94600   0.84410   Biso      1.000     H          0.170544  
         H7        1.0000    0.75210   0.82030   0.81170   Biso      1.000     H          0.168067  
         H8        1.0000    0.79670   0.53110   0.99650   Biso      1.000     H          0.12748099999999998           
         H9        1.0000    0.48220   0.51950   0.19870   Biso      1.000     H          0.116895  
         H10       1.0000    0.34260   0.33680   0.98520   Biso      1.000     H          0.12246800000000001           
         H11       1.0000    0.15590   0.31960   0.09980   Biso      1.000     H          0.170126  
         H12       1.0000    0.65740   0.83680   0.01480   Biso      1.000     H          0.12246800000000001           
         H13       1.0000    0.24790   0.32030   0.18830   Biso      1.000     H          0.168067  
         H14       1.0000    0.15170   0.44600   0.15590   Biso      1.000     H          0.170544  
         H15       1.0000    0.65590   0.31960   0.40020   Biso      1.000     H          0.170125  
         H16       1.0000    0.98220   0.51950   0.30130   Biso      1.000     H          0.116895  
         H17       1.0000    0.29670   0.53110   0.50350   Biso      1.000     H          0.12748099999999998           
         H18       1.0000    0.25210   0.82030   0.68830   Biso      1.000     H          0.168067  
         H19       1.0000    0.84260   0.33680   0.51480   Biso      1.000     H          0.12246800000000001           
         H20       1.0000    0.34410   0.81960   0.59980   Biso      1.000     H          0.170125  
         H21       1.0000    0.15740   0.83680   0.48520   Biso      1.000     H          0.12246800000000001           
         H22       1.0000    0.01780   0.01950   0.69870   Biso      1.000     H          0.116895  
         H23       1.0000    0.70330   0.03110   0.49650   Biso      1.000     H          0.12748099999999998           
         H24       1.0000    0.34830   0.94600   0.65590   Biso      1.000     H          0.170544  
         O1        1.0000    0.73840   0.89560   0.36050   Biso      1.000     O          -0.5806140000000001           
         O2        1.0000    0.97620   0.37150   0.66040   Biso      1.000     O          -0.595321           
         O3        1.0000    0.26160   0.39560   0.63950   Biso      1.000     O          -0.5806140000000001           
         O4        1.0000    0.75090   0.16560   0.72550   Biso      1.000     O          -0.6064   
         O5        1.0000    0.57520   0.15140   0.61680   Biso      1.000     O          -0.539912           
         O6        1.0000    0.02380   0.87150   0.33960   Biso      1.000     O          -0.595321           
         O7        1.0000    0.74910   0.66560   0.22550   Biso      1.000     O          -0.6064   
         O8        1.0000    0.52380   0.87150   0.16040   Biso      1.000     O          -0.595321           
         O9        1.0000    0.47620   0.37150   0.83960   Biso      1.000     O          -0.595321           
         O10       1.0000    0.76160   0.39560   0.86050   Biso      1.000     O          -0.5806140000000001           
         O11       1.0000    0.25090   0.16560   0.77450   Biso      1.000     O          -0.6064   
         O12       1.0000    0.07520   0.15140   0.88320   Biso      1.000     O          -0.539912           
         O13       1.0000    0.23840   0.89560   0.13950   Biso      1.000     O          -0.5806140000000001           
         O14       1.0000    0.42480   0.65140   0.38320   Biso      1.000     O          -0.539912           
         O15       1.0000    0.92480   0.65140   0.11680   Biso      1.000     O          -0.539912           
         O16       1.0000    0.24910   0.66560   0.27450   Biso      1.000     O          -0.6064 