
##########################################################################
#               Crystallographic Information Format file
#               Produced by PyCifRW module
#
#  This is a CIF file.  CIF has been adopted by the International
#  Union of Crystallography as the standard for data archiving and
#  transmission.
#
#  For information on this file format, follow the CIF links at
#  http://www.iucr.org
##########################################################################

data_image0

_cell_length_a                          7.339
_cell_length_b                          11.247
_cell_length_c                          15.8458
_cell_angle_alpha                       90
_cell_angle_beta                        90
_cell_angle_gamma                       90
_symmetry_space_group_name_H-M          'P 1'
_symmetry_int_tables_number             1
loop_
  _symmetry_equiv_pos_as_xyz
         'x, y, z' 
loop_
  _atom_site_label
  _atom_site_occupancy
  _atom_site_fract_x
  _atom_site_fract_y
  _atom_site_fract_z
  _atom_site_thermal_displace_type
  _atom_site_B_iso_or_equiv
  _atom_site_type_symbol
  _atom_site_charge
         C1        1.0000    0.57200   0.88350   0.48070   Biso      1.000     C          -0.18449000000000002          
         C2        1.0000    0.80000   0.88400   0.36240   Biso      1.000     C          -0.520246           
         C3        1.0000    0.29600   0.77090   0.47470   Biso      1.000     C          -0.155635           
         C4        1.0000    0.34900   0.72960   0.39270   Biso      1.000     C          -0.018038           
         C5        1.0000    0.50800   0.76640   0.35860   Biso      1.000     C          -0.177926           
         C6        1.0000    0.62900   0.84280   0.40140   Biso      1.000     C          0.21943000000000001           
         C7        1.0000    0.41200   0.85210   0.51780   Biso      1.000     C          -0.013419           
         C8        1.0000    0.21700   0.64210   0.35120   Biso      1.000     C          0.596826  
         C9        1.0000    0.35400   0.90020   0.60170   Biso      1.000     C          0.6198520000000001  
         C10       1.0000    0.64600   0.40020   0.39830   Biso      1.000     C          0.619853  
         C11       1.0000    0.58800   0.35210   0.48220   Biso      1.000     C          -0.013427000000000001         
         C12       1.0000    0.42800   0.38350   0.51930   Biso      1.000     C          -0.184481           
         C13       1.0000    0.37100   0.34280   0.59860   Biso      1.000     C          0.219431  
         C14       1.0000    0.49200   0.26640   0.64140   Biso      1.000     C          -0.17794400000000002          
         C15       1.0000    0.65100   0.22960   0.60730   Biso      1.000     C          -0.018019999999999998         
         C16       1.0000    0.78300   0.14210   0.64880   Biso      1.000     C          0.596824  
         C17       1.0000    0.14600   0.40020   0.10170   Biso      1.000     C          0.619853  
         C18       1.0000    0.08800   0.35210   0.01780   Biso      1.000     C          -0.013427000000000001         
         C19       1.0000    0.92800   0.38350   0.98070   Biso      1.000     C          -0.184482           
         C20       1.0000    0.71700   0.64210   0.14880   Biso      1.000     C          0.596826  
         C21       1.0000    0.30000   0.88400   0.13760   Biso      1.000     C          -0.520246           
         C22       1.0000    0.79600   0.77090   0.02530   Biso      1.000     C          -0.155635           
         C23       1.0000    0.84900   0.72960   0.10730   Biso      1.000     C          -0.018038           
         C24       1.0000    0.00800   0.76640   0.14140   Biso      1.000     C          -0.177925           
         C25       1.0000    0.12900   0.84280   0.09860   Biso      1.000     C          0.21943000000000001           
         C26       1.0000    0.07200   0.88350   0.01930   Biso      1.000     C          -0.18448900000000001          
         C27       1.0000    0.91200   0.85210   0.98220   Biso      1.000     C          -0.013419           
         C28       1.0000    0.85400   0.90020   0.89830   Biso      1.000     C          0.6198520000000001  
         C29       1.0000    0.28300   0.14210   0.85120   Biso      1.000     C          0.596826  
         C30       1.0000    0.70000   0.38400   0.86240   Biso      1.000     C          -0.520247           
         C31       1.0000    0.20400   0.27090   0.97470   Biso      1.000     C          -0.155634           
         C32       1.0000    0.15100   0.22960   0.89270   Biso      1.000     C          -0.018039           
         C33       1.0000    0.99200   0.26640   0.85860   Biso      1.000     C          -0.177926           
         C34       1.0000    0.87100   0.34280   0.90140   Biso      1.000     C          0.21943000000000001           
         C35       1.0000    0.70400   0.27090   0.52530   Biso      1.000     C          -0.155636           
         C36       1.0000    0.20000   0.38400   0.63760   Biso      1.000     C          -0.520246           
         Cd1       1.0000    0.46990   0.48930   0.22170   Biso      1.000     Cd          1.016656  
         Cd2       1.0000    0.53010   0.98930   0.77830   Biso      1.000     Cd          1.016656  
         Cd3       1.0000    0.96990   0.48930   0.27830   Biso      1.000     Cd          1.016656  
         Cd4       1.0000    0.03010   0.98930   0.72170   Biso      1.000     Cd          1.016657  
         H1        1.0000    0.40130   0.86350   0.10200   Biso      1.000     H          0.176189  
         H2        1.0000    0.35170   0.43530   0.49030   Biso      1.000     H          0.124127  
         H3        1.0000    0.46200   0.24040   0.69530   Biso      1.000     H          0.11553599999999999           
         H4        1.0000    0.29620   0.96900   0.14450   Biso      1.000     H          0.169128  
         H5        1.0000    0.18480   0.34730   0.69180   Biso      1.000     H          0.167018  
         H6        1.0000    0.09870   0.36350   0.60200   Biso      1.000     H          0.176189  
         H7        1.0000    0.20380   0.46900   0.64450   Biso      1.000     H          0.169128  
         H8        1.0000    0.64830   0.93530   0.50970   Biso      1.000     H          0.124127  
         H9        1.0000    0.53800   0.74040   0.30470   Biso      1.000     H          0.11553499999999998           
         H10       1.0000    0.18810   0.74520   0.49930   Biso      1.000     H          0.12766   
         H11       1.0000    0.81520   0.84730   0.30820   Biso      1.000     H          0.167018  
         H12       1.0000    0.81190   0.24520   0.50070   Biso      1.000     H          0.12766   
         H13       1.0000    0.79620   0.96900   0.35550   Biso      1.000     H          0.169128  
         H14       1.0000    0.90130   0.86350   0.39800   Biso      1.000     H          0.176189  
         H15       1.0000    0.31520   0.84730   0.19180   Biso      1.000     H          0.167018  
         H16       1.0000    0.03800   0.74040   0.19530   Biso      1.000     H          0.11553499999999998           
         H17       1.0000    0.14830   0.93530   0.99030   Biso      1.000     H          0.124127  
         H18       1.0000    0.70380   0.46900   0.85550   Biso      1.000     H          0.169128  
         H19       1.0000    0.68810   0.74520   0.00070   Biso      1.000     H          0.12766   
         H20       1.0000    0.68480   0.34730   0.80820   Biso      1.000     H          0.167018  
         H21       1.0000    0.31190   0.24520   0.99930   Biso      1.000     H          0.12766   
         H22       1.0000    0.96200   0.24040   0.80470   Biso      1.000     H          0.11553499999999998           
         H23       1.0000    0.85170   0.43530   0.00970   Biso      1.000     H          0.124127  
         H24       1.0000    0.59870   0.36350   0.89800   Biso      1.000     H          0.176189  
         O1        1.0000    0.02090   0.45500   0.14120   Biso      1.000     O          -0.5928899999999999           
         O2        1.0000    0.69150   0.89300   0.87800   Biso      1.000     O          -0.5511689999999999           
         O3        1.0000    0.97910   0.95500   0.85880   Biso      1.000     O          -0.5928899999999999           
         O4        1.0000    0.41850   0.10560   0.88600   Biso      1.000     O          -0.49045900000000003          
         O5        1.0000    0.24200   0.11240   0.77480   Biso      1.000     O          -0.62815  
         O6        1.0000    0.30850   0.39300   0.12200   Biso      1.000     O          -0.551168           
         O7        1.0000    0.08150   0.60560   0.38600   Biso      1.000     O          -0.49045900000000003          
         O8        1.0000    0.80850   0.39300   0.37800   Biso      1.000     O          -0.551168           
         O9        1.0000    0.19150   0.89300   0.62200   Biso      1.000     O          -0.5511689999999999           
         O10       1.0000    0.47910   0.95500   0.64120   Biso      1.000     O          -0.5928899999999999           
         O11       1.0000    0.91850   0.10560   0.61400   Biso      1.000     O          -0.49045900000000003          
         O12       1.0000    0.74200   0.11240   0.72520   Biso      1.000     O          -0.62815  
         O13       1.0000    0.52090   0.45500   0.35880   Biso      1.000     O          -0.5928899999999999           
         O14       1.0000    0.75800   0.61240   0.22520   Biso      1.000     O          -0.62815  
         O15       1.0000    0.25800   0.61240   0.27480   Biso      1.000     O          -0.62815  
         O16       1.0000    0.58150   0.60560   0.11400   Biso      1.000     O          -0.49045900000000003 