
##########################################################################
#               Crystallographic Information Format file
#               Produced by PyCifRW module
#
#  This is a CIF file.  CIF has been adopted by the International
#  Union of Crystallography as the standard for data archiving and
#  transmission.
#
#  For information on this file format, follow the CIF links at
#  http://www.iucr.org
##########################################################################

data_image0

_cell_length_a                          9.428
_cell_length_b                          22.415
_cell_length_c                          10.051
_cell_angle_alpha                       90
_cell_angle_beta                        102.12
_cell_angle_gamma                       90
_symmetry_space_group_name_H-M          'P 1'
_symmetry_int_tables_number             1
loop_
  _symmetry_equiv_pos_as_xyz
         'x, y, z' 
loop_
  _atom_site_label
  _atom_site_occupancy
  _atom_site_fract_x
  _atom_site_fract_y
  _atom_site_fract_z
  _atom_site_thermal_displace_type
  _atom_site_B_iso_or_equiv
  _atom_site_type_symbol
  _atom_site_charge
         C1        1.0000    0.06320   0.82420   0.61990   Biso      1.000     C          0.517817  
         C2        1.0000    0.23510   0.48579   0.59490   Biso      1.000     C          -0.14418699999999998          
         C3        1.0000    0.27650   0.51048   0.48150   Biso      1.000     C          0.13874   
         C4        1.0000    0.38070   0.55983   0.48830   Biso      1.000     C          0.312611  
         C5        1.0000    0.50200   0.62920   0.41060   Biso      1.000     C          0.023247  
         C6        1.0000    0.54400   0.63072   0.55120   Biso      1.000     C          0.013691  
         C7        1.0000    0.95300   0.15068   0.52630   Biso      1.000     C          0.512147  
         C8        1.0000    0.04700   0.84932   0.47370   Biso      1.000     C          0.512147  
         C9        1.0000    0.95480   0.97976   0.53750   Biso      1.000     C          0.498084  
         C10       1.0000    0.47910   0.97858   0.43800   Biso      1.000     C          0.506195  
         C11       1.0000    0.53830   0.83826   0.79320   Biso      1.000     C          0.651803  
         C12       1.0000    0.64220   0.83023   0.15030   Biso      1.000     C          0.664804  
         C13       1.0000    0.13070   0.05318   0.83460   Biso      1.000     C          0.121825  
         C14       1.0000    0.08560   0.08159   0.94120   Biso      1.000     C          -0.134427           
         C15       1.0000    0.13670   0.06168   0.07280   Biso      1.000     C          -0.026427999999999997         
         C16       1.0000    0.23510   0.01421   0.09490   Biso      1.000     C          -0.14418699999999998          
         C17       1.0000    0.27650   0.98952   0.98150   Biso      1.000     C          0.13874   
         C18       1.0000    0.38070   0.94017   0.98830   Biso      1.000     C          0.312611  
         C19       1.0000    0.13670   0.43832   0.57280   Biso      1.000     C          -0.026430000000000002         
         C20       1.0000    0.50200   0.87080   0.91060   Biso      1.000     C          0.023247  
         C21       1.0000    0.08560   0.41841   0.44120   Biso      1.000     C          -0.134425           
         C22       1.0000    0.64220   0.66977   0.65030   Biso      1.000     C          0.664804  
         C23       1.0000    0.04520   0.02024   0.46250   Biso      1.000     C          0.498084  
         C24       1.0000    0.52090   0.02142   0.56200   Biso      1.000     C          0.506195  
         C25       1.0000    0.46170   0.16174   0.20680   Biso      1.000     C          0.651803  
         C26       1.0000    0.35780   0.16977   0.84970   Biso      1.000     C          0.664804  
         C27       1.0000    0.86930   0.94682   0.16540   Biso      1.000     C          0.121825  
         C28       1.0000    0.91440   0.91841   0.05880   Biso      1.000     C          -0.134427           
         C29       1.0000    0.86330   0.93832   0.92720   Biso      1.000     C          -0.026427999999999997         
         C30       1.0000    0.76490   0.98579   0.90510   Biso      1.000     C          -0.14418699999999998          
         C31       1.0000    0.72350   0.01048   0.01850   Biso      1.000     C          0.13874   
         C32       1.0000    0.61930   0.05983   0.01170   Biso      1.000     C          0.312611  
         C33       1.0000    0.49800   0.12920   0.08940   Biso      1.000     C          0.023247  
         C34       1.0000    0.45600   0.13072   0.94880   Biso      1.000     C          0.013692  
         C35       1.0000    0.06320   0.67580   0.11990   Biso      1.000     C          0.517817  
         C36       1.0000    0.04700   0.65068   0.97370   Biso      1.000     C          0.512147  
         C37       1.0000    0.95480   0.52024   0.03750   Biso      1.000     C          0.498084  
         C38       1.0000    0.47910   0.52142   0.93800   Biso      1.000     C          0.506195  
         C39       1.0000    0.53830   0.66174   0.29320   Biso      1.000     C          0.651803  
         C40       1.0000    0.13070   0.44682   0.33460   Biso      1.000     C          0.121825  
         C41       1.0000    0.54400   0.86928   0.05120   Biso      1.000     C          0.013692  
         C42       1.0000    0.93680   0.17580   0.38010   Biso      1.000     C          0.517817  
         C43       1.0000    0.86330   0.56168   0.42720   Biso      1.000     C          -0.026430000000000002         
         C44       1.0000    0.04520   0.47976   0.96250   Biso      1.000     C          0.498084  
         C45       1.0000    0.52090   0.47858   0.06200   Biso      1.000     C          0.506195  
         C46       1.0000    0.46170   0.33826   0.70680   Biso      1.000     C          0.651803  
         C47       1.0000    0.35780   0.33023   0.34970   Biso      1.000     C          0.664804  
         C48       1.0000    0.86930   0.55318   0.66540   Biso      1.000     C          0.121825  
         C49       1.0000    0.95300   0.34932   0.02630   Biso      1.000     C          0.512147  
         C50       1.0000    0.76490   0.51421   0.40510   Biso      1.000     C          -0.14418699999999998          
         C51       1.0000    0.91440   0.58159   0.55880   Biso      1.000     C          -0.134425           
         C52       1.0000    0.61930   0.44017   0.51170   Biso      1.000     C          0.312611  
         C53       1.0000    0.49800   0.37080   0.58940   Biso      1.000     C          0.023247  
         C54       1.0000    0.45600   0.36928   0.44880   Biso      1.000     C          0.013692  
         C55       1.0000    0.72350   0.48952   0.51850   Biso      1.000     C          0.138741  
         C56       1.0000    0.93680   0.32420   0.88010   Biso      1.000     C          0.517817  
         Dy1       1.0000    0.28167   0.56539   0.14169   Biso      1.000     Dy          1.925643  
         Dy2       1.0000    0.74950   0.72283   0.95337   Biso      1.000     Dy          2.2154599999999998  
         Dy3       1.0000    0.25050   0.22283   0.54663   Biso      1.000     Dy          2.2154599999999998  
         Dy4       1.0000    0.71833   0.06539   0.35831   Biso      1.000     Dy          1.925643  
         Dy5       1.0000    0.71833   0.43461   0.85831   Biso      1.000     Dy          1.925643  
         Dy6       1.0000    0.25050   0.27717   0.04663   Biso      1.000     Dy          2.2154599999999998  
         Dy7       1.0000    0.74950   0.77717   0.45337   Biso      1.000     Dy          2.2154599999999998  
         Dy8       1.0000    0.28167   0.93461   0.64169   Biso      1.000     Dy          1.925643  
         H1        1.0000    0.27243   0.99935   0.18392   Biso      1.000     H          0.147963  
         H2        1.0000    0.02035   0.38565   0.42397   Biso      1.000     H          0.132459  
         H3        1.0000    0.10536   0.42006   0.64691   Biso      1.000     H          0.12623   
         H4        1.0000    0.27243   0.50065   0.68392   Biso      1.000     H          0.147963  
         H5        1.0000    0.72757   0.49935   0.31608   Biso      1.000     H          0.147963  
         H6        1.0000    0.89464   0.57994   0.35309   Biso      1.000     H          0.12623   
         H7        1.0000    0.72757   0.00065   0.81608   Biso      1.000     H          0.147963  
         H8        1.0000    0.89464   0.92006   0.85309   Biso      1.000     H          0.126229  
         H9        1.0000    0.09353   0.43300   0.24469   Biso      1.000     H          0.100965  
         H10       1.0000    0.90647   0.93300   0.25531   Biso      1.000     H          0.100965  
         H11       1.0000    0.52406   0.42668   0.32141   Biso      1.000     H          0.325961  
         H12       1.0000    0.47594   0.57332   0.67859   Biso      1.000     H          0.325961  
         H13       1.0000    0.97965   0.88565   0.07603   Biso      1.000     H          0.13246   
         H14       1.0000    0.10536   0.07994   0.14691   Biso      1.000     H          0.126229  
         H15       1.0000    0.02035   0.11435   0.92397   Biso      1.000     H          0.13246   
         H16       1.0000    0.09353   0.06700   0.74469   Biso      1.000     H          0.100965  
         H17       1.0000    0.52406   0.07332   0.82141   Biso      1.000     H          0.325961  
         H18       1.0000    0.97965   0.61435   0.57603   Biso      1.000     H          0.13246   
         H19       1.0000    0.90647   0.56700   0.75531   Biso      1.000     H          0.100965  
         H20       1.0000    0.47594   0.92668   0.17859   Biso      1.000     H          0.325961  
         N1        1.0000    0.40170   0.91520   0.87460   Biso      1.000     N          -0.45463400000000004          
         N2        1.0000    0.46590   0.91369   0.09750   Biso      1.000     N          -0.258742           
         N3        1.0000    0.22340   0.00743   0.85170   Biso      1.000     N          -0.334267           
         N4        1.0000    0.46590   0.58631   0.59750   Biso      1.000     N          -0.258742           
         N5        1.0000    0.22340   0.49257   0.35170   Biso      1.000     N          -0.334267           
         N6        1.0000    0.59830   0.08480   0.12540   Biso      1.000     N          -0.45463400000000004          
         N7        1.0000    0.53410   0.08631   0.90250   Biso      1.000     N          -0.258742           
         N8        1.0000    0.77660   0.50743   0.64830   Biso      1.000     N          -0.334267           
         N9        1.0000    0.59830   0.41520   0.62540   Biso      1.000     N          -0.45463400000000004          
         N10       1.0000    0.40170   0.58480   0.37460   Biso      1.000     N          -0.45463400000000004          
         N11       1.0000    0.53410   0.41369   0.40250   Biso      1.000     N          -0.258741           
         N12       1.0000    0.77660   0.99257   0.14830   Biso      1.000     N          -0.334267           
         O1        1.0000    0.83030   0.15752   0.29130   Biso      1.000     O          -0.560686           
         O2        1.0000    0.52420   0.14015   0.32310   Biso      1.000     O          -0.612504           
         O3        1.0000    0.37760   0.20542   0.19370   Biso      1.000     O          -0.7420760000000001           
         O4        1.0000    0.27710   0.20687   0.89140   Biso      1.000     O          -0.745772           
         O5        1.0000    0.36510   0.16259   0.72730   Biso      1.000     O          -0.63605  
         O6        1.0000    0.60130   0.06390   0.55090   Biso      1.000     O          -0.55461  
         O7        1.0000    0.84900   0.11935   0.54880   Biso      1.000     O          -0.55672  
         O8        1.0000    0.84900   0.38065   0.04880   Biso      1.000     O          -0.55672  
         O9        1.0000    0.97690   0.05213   0.36870   Biso      1.000     O          -0.6103149999999999           
         O10       1.0000    0.18080   0.01829   0.50470   Biso      1.000     O          -0.605115           
         O11       1.0000    0.27710   0.29313   0.39140   Biso      1.000     O          -0.745772           
         O12       1.0000    0.37760   0.29458   0.69370   Biso      1.000     O          -0.7420760000000001           
         O13       1.0000    0.52420   0.35985   0.82310   Biso      1.000     O          -0.612504           
         O14       1.0000    0.83030   0.34248   0.79130   Biso      1.000     O          -0.560686           
         O15       1.0000    0.03430   0.28800   0.86350   Biso      1.000     O          -0.678747           
         O16       1.0000    0.06770   0.33781   0.10940   Biso      1.000     O          -0.6435029999999999           
         O17       1.0000    0.96570   0.78800   0.63650   Biso      1.000     O          -0.678747           
         O18       1.0000    0.46950   0.00851   0.66570   Biso      1.000     O          -0.636865           
         O19       1.0000    0.03430   0.21200   0.36350   Biso      1.000     O          -0.678747           
         O20       1.0000    0.47580   0.85985   0.67690   Biso      1.000     O          -0.612504           
         O21       1.0000    0.16970   0.84248   0.70870   Biso      1.000     O          -0.560686           
         O22       1.0000    0.81920   0.98171   0.49530   Biso      1.000     O          -0.605115           
         O23       1.0000    0.02310   0.94787   0.63130   Biso      1.000     O          -0.6103149999999999           
         O24       1.0000    0.93230   0.66219   0.89060   Biso      1.000     O          -0.6435029999999999           
         O25       1.0000    0.96570   0.71200   0.13650   Biso      1.000     O          -0.678747           
         O26       1.0000    0.16970   0.65752   0.20870   Biso      1.000     O          -0.560686           
         O27       1.0000    0.15100   0.61935   0.95120   Biso      1.000     O          -0.55672  
         O28       1.0000    0.47580   0.64015   0.17690   Biso      1.000     O          -0.612504           
         O29       1.0000    0.62240   0.70542   0.30630   Biso      1.000     O          -0.7420760000000001           
         O30       1.0000    0.72290   0.70687   0.60860   Biso      1.000     O          -0.745772           
         O31       1.0000    0.63490   0.66259   0.77270   Biso      1.000     O          -0.63605  
         O32       1.0000    0.39870   0.56390   0.94910   Biso      1.000     O          -0.55461  
         O33       1.0000    0.53050   0.50851   0.83430   Biso      1.000     O          -0.636865           
         O34       1.0000    0.02310   0.55213   0.13130   Biso      1.000     O          -0.6103149999999999           
         O35       1.0000    0.81920   0.51829   0.99530   Biso      1.000     O          -0.605115           
         O36       1.0000    0.53050   0.99149   0.33430   Biso      1.000     O          -0.6368659999999999           
         O37       1.0000    0.39870   0.93610   0.44910   Biso      1.000     O          -0.55461  
         O38       1.0000    0.63490   0.83741   0.27270   Biso      1.000     O          -0.63605  
         O39       1.0000    0.72290   0.79313   0.10860   Biso      1.000     O          -0.745772           
         O40       1.0000    0.62240   0.79458   0.80630   Biso      1.000     O          -0.7420760000000001           
         O41       1.0000    0.18080   0.48171   0.00470   Biso      1.000     O          -0.605115           
         O42       1.0000    0.97690   0.44787   0.86870   Biso      1.000     O          -0.6103149999999999           
         O43       1.0000    0.46950   0.49149   0.16570   Biso      1.000     O          -0.636865           
         O44       1.0000    0.60130   0.43610   0.05090   Biso      1.000     O          -0.55461  
         O45       1.0000    0.36510   0.33741   0.22730   Biso      1.000     O          -0.63605  
         O46       1.0000    0.15100   0.88065   0.45120   Biso      1.000     O          -0.55672  
         O47       1.0000    0.06770   0.16219   0.60940   Biso      1.000     O          -0.6435029999999999           
         O48       1.0000    0.93230   0.83781   0.39060   Biso      1.000     O          -0.6435029999999999 