
##########################################################################
#               Crystallographic Information Format file
#               Produced by PyCifRW module
#
#  This is a CIF file.  CIF has been adopted by the International
#  Union of Crystallography as the standard for data archiving and
#  transmission.
#
#  For information on this file format, follow the CIF links at
#  http://www.iucr.org
##########################################################################

data_image0

_cell_length_a                          9.4056
_cell_length_b                          22.3152
_cell_length_c                          10.082
_cell_angle_alpha                       90
_cell_angle_beta                        102.96
_cell_angle_gamma                       90
_symmetry_space_group_name_H-M          'P 1'
_symmetry_int_tables_number             1
loop_
  _symmetry_equiv_pos_as_xyz
         'x, y, z' 
loop_
  _atom_site_label
  _atom_site_occupancy
  _atom_site_fract_x
  _atom_site_fract_y
  _atom_site_fract_z
  _atom_site_thermal_displace_type
  _atom_site_B_iso_or_equiv
  _atom_site_type_symbol
  _atom_site_charge
         C1        1.0000    0.06670   0.82290   0.61430   Biso      1.000     C          0.525019  
         C2        1.0000    0.23490   0.48800   0.59230   Biso      1.000     C          -0.143021           
         C3        1.0000    0.27720   0.51080   0.47890   Biso      1.000     C          0.133796  
         C4        1.0000    0.38130   0.56000   0.48390   Biso      1.000     C          0.31945999999999997           
         C5        1.0000    0.50090   0.62950   0.40560   Biso      1.000     C          0.023896  
         C6        1.0000    0.54630   0.63180   0.54660   Biso      1.000     C          0.004465  
         C7        1.0000    0.95180   0.15180   0.53110   Biso      1.000     C          0.517363  
         C8        1.0000    0.04820   0.84820   0.46890   Biso      1.000     C          0.517363  
         C9        1.0000    0.95560   0.97960   0.53870   Biso      1.000     C          0.502013  
         C10       1.0000    0.47940   0.97930   0.43660   Biso      1.000     C          0.5168470000000001  
         C11       1.0000    0.53670   0.83850   0.78960   Biso      1.000     C          0.65854   
         C12       1.0000    0.64420   0.82880   0.14530   Biso      1.000     C          0.6749109999999999  
         C13       1.0000    0.12830   0.05350   0.83510   Biso      1.000     C          0.120028  
         C14       1.0000    0.08510   0.08020   0.94040   Biso      1.000     C          -0.130747           
         C15       1.0000    0.13640   0.05980   0.07230   Biso      1.000     C          -0.024704           
         C16       1.0000    0.23490   0.01200   0.09230   Biso      1.000     C          -0.143021           
         C17       1.0000    0.27720   0.98920   0.97890   Biso      1.000     C          0.133797  
         C18       1.0000    0.38130   0.94000   0.98390   Biso      1.000     C          0.31945999999999997           
         C19       1.0000    0.13640   0.44020   0.57230   Biso      1.000     C          -0.024702           
         C20       1.0000    0.50090   0.87050   0.90560   Biso      1.000     C          0.023897  
         C21       1.0000    0.08510   0.41980   0.44040   Biso      1.000     C          -0.13076300000000002          
         C22       1.0000    0.64420   0.67120   0.64530   Biso      1.000     C          0.67491   
         C23       1.0000    0.04440   0.02040   0.46130   Biso      1.000     C          0.502013  
         C24       1.0000    0.52060   0.02070   0.56340   Biso      1.000     C          0.5168470000000001  
         C25       1.0000    0.46330   0.16150   0.21040   Biso      1.000     C          0.65854   
         C26       1.0000    0.35580   0.17120   0.85470   Biso      1.000     C          0.6749109999999999  
         C27       1.0000    0.87170   0.94650   0.16490   Biso      1.000     C          0.120027  
         C28       1.0000    0.91490   0.91980   0.05960   Biso      1.000     C          -0.130747           
         C29       1.0000    0.86360   0.94020   0.92770   Biso      1.000     C          -0.024704           
         C30       1.0000    0.76510   0.98800   0.90770   Biso      1.000     C          -0.14302  
         C31       1.0000    0.72280   0.01080   0.02110   Biso      1.000     C          0.133797  
         C32       1.0000    0.61870   0.06000   0.01610   Biso      1.000     C          0.31945999999999997           
         C33       1.0000    0.49910   0.12950   0.09440   Biso      1.000     C          0.023897  
         C34       1.0000    0.45370   0.13180   0.95340   Biso      1.000     C          0.004465  
         C35       1.0000    0.06670   0.67710   0.11430   Biso      1.000     C          0.525018  
         C36       1.0000    0.04820   0.65180   0.96890   Biso      1.000     C          0.517362  
         C37       1.0000    0.95560   0.52040   0.03870   Biso      1.000     C          0.502013  
         C38       1.0000    0.47940   0.52070   0.93660   Biso      1.000     C          0.5168470000000001  
         C39       1.0000    0.53670   0.66150   0.28960   Biso      1.000     C          0.65854   
         C40       1.0000    0.12830   0.44650   0.33510   Biso      1.000     C          0.120045  
         C41       1.0000    0.54630   0.86820   0.04660   Biso      1.000     C          0.004465  
         C42       1.0000    0.93330   0.17710   0.38570   Biso      1.000     C          0.525018  
         C43       1.0000    0.86360   0.55980   0.42770   Biso      1.000     C          -0.024705           
         C44       1.0000    0.04440   0.47960   0.96130   Biso      1.000     C          0.502013  
         C45       1.0000    0.52060   0.47930   0.06340   Biso      1.000     C          0.5168470000000001  
         C46       1.0000    0.46330   0.33850   0.71040   Biso      1.000     C          0.65854   
         C47       1.0000    0.35580   0.32880   0.35470   Biso      1.000     C          0.6749109999999999  
         C48       1.0000    0.87170   0.55350   0.66490   Biso      1.000     C          0.120028  
         C49       1.0000    0.95180   0.34820   0.03110   Biso      1.000     C          0.517363  
         C50       1.0000    0.76510   0.51200   0.40770   Biso      1.000     C          -0.14302  
         C51       1.0000    0.91490   0.58020   0.55960   Biso      1.000     C          -0.130747           
         C52       1.0000    0.61870   0.44000   0.51610   Biso      1.000     C          0.31945999999999997           
         C53       1.0000    0.49910   0.37050   0.59440   Biso      1.000     C          0.023897  
         C54       1.0000    0.45370   0.36820   0.45340   Biso      1.000     C          0.004465  
         C55       1.0000    0.72280   0.48920   0.52110   Biso      1.000     C          0.133797  
         C56       1.0000    0.93330   0.32290   0.88570   Biso      1.000     C          0.525018  
         Er1       1.0000    0.28243   0.56605   0.13689   Biso      1.000     Er          1.933834  
         Er2       1.0000    0.75213   0.72387   0.94744   Biso      1.000     Er          2.2171689999999997  
         Er3       1.0000    0.24787   0.22387   0.55256   Biso      1.000     Er          2.21717   
         Er4       1.0000    0.71757   0.06605   0.36311   Biso      1.000     Er          1.9338330000000001  
         Er5       1.0000    0.71757   0.43395   0.86311   Biso      1.000     Er          1.933832  
         Er6       1.0000    0.24787   0.27613   0.05256   Biso      1.000     Er          2.21717   
         Er7       1.0000    0.75213   0.77613   0.44744   Biso      1.000     Er          2.21717   
         Er8       1.0000    0.28243   0.93395   0.63689   Biso      1.000     Er          1.933832  
         H1        1.0000    0.27088   0.99606   0.17852   Biso      1.000     H          0.147319  
         H2        1.0000    0.02072   0.38762   0.42399   Biso      1.000     H          0.12930899999999998           
         H3        1.0000    0.10624   0.42265   0.64503   Biso      1.000     H          0.126128  
         H4        1.0000    0.27088   0.50394   0.67852   Biso      1.000     H          0.147319  
         H5        1.0000    0.72912   0.49606   0.32148   Biso      1.000     H          0.147319  
         H6        1.0000    0.89376   0.57735   0.35497   Biso      1.000     H          0.126128  
         H7        1.0000    0.72912   0.00394   0.82148   Biso      1.000     H          0.147319  
         H8        1.0000    0.89376   0.92265   0.85497   Biso      1.000     H          0.126128  
         H9        1.0000    0.08920   0.43253   0.24761   Biso      1.000     H          0.09941799999999999           
         H10       1.0000    0.91080   0.93253   0.25239   Biso      1.000     H          0.09941900000000001           
         H11       1.0000    0.51867   0.42217   0.32273   Biso      1.000     H          0.326106  
         H12       1.0000    0.48133   0.57783   0.67727   Biso      1.000     H          0.326106  
         H13       1.0000    0.97928   0.88762   0.07601   Biso      1.000     H          0.129308  
         H14       1.0000    0.10624   0.07735   0.14503   Biso      1.000     H          0.126128  
         H15       1.0000    0.02072   0.11238   0.92399   Biso      1.000     H          0.129308  
         H16       1.0000    0.08920   0.06747   0.74761   Biso      1.000     H          0.09941900000000001           
         H17       1.0000    0.51867   0.07783   0.82273   Biso      1.000     H          0.326106  
         H18       1.0000    0.97928   0.61238   0.57601   Biso      1.000     H          0.129308  
         H19       1.0000    0.91080   0.56747   0.75239   Biso      1.000     H          0.09941900000000001           
         H20       1.0000    0.48133   0.92217   0.17727   Biso      1.000     H          0.326106  
         N1        1.0000    0.40020   0.91516   0.87030   Biso      1.000     N          -0.455722           
         N2        1.0000    0.46710   0.91262   0.09280   Biso      1.000     N          -0.25746399999999997          
         N3        1.0000    0.22340   0.00850   0.84950   Biso      1.000     N          -0.332406           
         N4        1.0000    0.46710   0.58738   0.59280   Biso      1.000     N          -0.257465           
         N5        1.0000    0.22340   0.49150   0.34950   Biso      1.000     N          -0.332408           
         N6        1.0000    0.59980   0.08484   0.12970   Biso      1.000     N          -0.455722           
         N7        1.0000    0.53290   0.08738   0.90720   Biso      1.000     N          -0.25746399999999997          
         N8        1.0000    0.77660   0.50850   0.65050   Biso      1.000     N          -0.332406           
         N9        1.0000    0.59980   0.41516   0.62970   Biso      1.000     N          -0.455722           
         N10       1.0000    0.40020   0.58484   0.37030   Biso      1.000     N          -0.455722           
         N11       1.0000    0.53290   0.41262   0.40720   Biso      1.000     N          -0.25746399999999997          
         N12       1.0000    0.77660   0.99150   0.15050   Biso      1.000     N          -0.332406           
         O1        1.0000    0.82730   0.15895   0.29840   Biso      1.000     O          -0.5560149999999999           
         O2        1.0000    0.52330   0.13958   0.32680   Biso      1.000     O          -0.6137739999999999           
         O3        1.0000    0.60190   0.06370   0.55390   Biso      1.000     O          -0.575108           
         O4        1.0000    0.38010   0.20522   0.19770   Biso      1.000     O          -0.7434350000000001           
         O5        1.0000    0.27310   0.20742   0.89660   Biso      1.000     O          -0.7528819999999999           
         O6        1.0000    0.36460   0.16511   0.73360   Biso      1.000     O          -0.638067           
         O7        1.0000    0.84990   0.11907   0.55220   Biso      1.000     O          -0.5632739999999999           
         O8        1.0000    0.84990   0.38093   0.05220   Biso      1.000     O          -0.5632739999999999           
         O9        1.0000    0.97430   0.05329   0.37080   Biso      1.000     O          -0.611851           
         O10       1.0000    0.18090   0.01764   0.50100   Biso      1.000     O          -0.609507           
         O11       1.0000    0.38010   0.29478   0.69770   Biso      1.000     O          -0.7434350000000001           
         O12       1.0000    0.60190   0.43630   0.05390   Biso      1.000     O          -0.575108           
         O13       1.0000    0.52330   0.36042   0.82680   Biso      1.000     O          -0.6137739999999999           
         O14       1.0000    0.82730   0.34105   0.79840   Biso      1.000     O          -0.5560149999999999           
         O15       1.0000    0.02940   0.28574   0.87080   Biso      1.000     O          -0.687865           
         O16       1.0000    0.06640   0.33652   0.11430   Biso      1.000     O          -0.6451399999999999           
         O17       1.0000    0.97060   0.78574   0.62920   Biso      1.000     O          -0.687865           
         O18       1.0000    0.46890   0.00784   0.66300   Biso      1.000     O          -0.6346390000000001           
         O19       1.0000    0.02940   0.21426   0.37080   Biso      1.000     O          -0.687865           
         O20       1.0000    0.47670   0.86042   0.67320   Biso      1.000     O          -0.613775           
         O21       1.0000    0.17270   0.84105   0.70160   Biso      1.000     O          -0.556014           
         O22       1.0000    0.81910   0.98236   0.49900   Biso      1.000     O          -0.609506           
         O23       1.0000    0.02570   0.94671   0.62920   Biso      1.000     O          -0.611851           
         O24       1.0000    0.93360   0.66348   0.88570   Biso      1.000     O          -0.6451399999999999           
         O25       1.0000    0.97060   0.71426   0.12920   Biso      1.000     O          -0.687865           
         O26       1.0000    0.17270   0.65895   0.20160   Biso      1.000     O          -0.556014           
         O27       1.0000    0.15010   0.61907   0.94780   Biso      1.000     O          -0.5632739999999999           
         O28       1.0000    0.47670   0.63958   0.17320   Biso      1.000     O          -0.6137739999999999           
         O29       1.0000    0.39810   0.56370   0.94610   Biso      1.000     O          -0.575108           
         O30       1.0000    0.61990   0.70522   0.30230   Biso      1.000     O          -0.743436           
         O31       1.0000    0.72690   0.70742   0.60340   Biso      1.000     O          -0.7528819999999999           
         O32       1.0000    0.63540   0.66511   0.76640   Biso      1.000     O          -0.638067           
         O33       1.0000    0.53110   0.50784   0.83700   Biso      1.000     O          -0.6346390000000001           
         O34       1.0000    0.02570   0.55329   0.12920   Biso      1.000     O          -0.611851           
         O35       1.0000    0.81910   0.51764   0.99900   Biso      1.000     O          -0.609506           
         O36       1.0000    0.53110   0.99216   0.33700   Biso      1.000     O          -0.6346390000000001           
         O37       1.0000    0.63540   0.83489   0.26640   Biso      1.000     O          -0.6380680000000001           
         O38       1.0000    0.72690   0.79258   0.10340   Biso      1.000     O          -0.7528819999999999           
         O39       1.0000    0.61990   0.79478   0.80230   Biso      1.000     O          -0.743436           
         O40       1.0000    0.39810   0.93630   0.44610   Biso      1.000     O          -0.575108           
         O41       1.0000    0.18090   0.48236   0.00100   Biso      1.000     O          -0.609507           
         O42       1.0000    0.97430   0.44671   0.87080   Biso      1.000     O          -0.611851           
         O43       1.0000    0.46890   0.49216   0.16300   Biso      1.000     O          -0.6346390000000001           
         O44       1.0000    0.36460   0.33489   0.23360   Biso      1.000     O          -0.6380680000000001           
         O45       1.0000    0.27310   0.29258   0.39660   Biso      1.000     O          -0.7528819999999999           
         O46       1.0000    0.15010   0.88093   0.44780   Biso      1.000     O          -0.5632739999999999           
         O47       1.0000    0.06640   0.16348   0.61430   Biso      1.000     O          -0.6451399999999999           
         O48       1.0000    0.93360   0.83652   0.38570   Biso      1.000     O          -0.6451399999999999 