
##########################################################################
#               Crystallographic Information Format file
#               Produced by PyCifRW module
#
#  This is a CIF file.  CIF has been adopted by the International
#  Union of Crystallography as the standard for data archiving and
#  transmission.
#
#  For information on this file format, follow the CIF links at
#  http://www.iucr.org
##########################################################################

data_image0

_cell_length_a                          9.574
_cell_length_b                          22.547
_cell_length_c                          10.122
_cell_angle_alpha                       90
_cell_angle_beta                        102.04
_cell_angle_gamma                       90
_symmetry_space_group_name_H-M          'P 1'
_symmetry_int_tables_number             1
loop_
  _symmetry_equiv_pos_as_xyz
         'x, y, z' 
loop_
  _atom_site_label
  _atom_site_occupancy
  _atom_site_fract_x
  _atom_site_fract_y
  _atom_site_fract_z
  _atom_site_thermal_displace_type
  _atom_site_B_iso_or_equiv
  _atom_site_type_symbol
  _atom_site_charge
         C1        1.0000    0.23730   0.48710   0.59950   Biso      1.000     C          -0.15048699999999998          
         C2        1.0000    0.76270   0.98710   0.90050   Biso      1.000     C          -0.150482           
         C3        1.0000    0.09210   0.41900   0.44540   Biso      1.000     C          -0.122091           
         C4        1.0000    0.72150   0.01114   0.01270   Biso      1.000     C          0.139849  
         C5        1.0000    0.13460   0.44680   0.34090   Biso      1.000     C          0.103593  
         C6        1.0000    0.61780   0.06007   0.00750   Biso      1.000     C          0.29682800000000004           
         C7        1.0000    0.13460   0.05320   0.84090   Biso      1.000     C          0.10357999999999999           
         C8        1.0000    0.45600   0.13103   0.94580   Biso      1.000     C          0.037806  
         C9        1.0000    0.86540   0.55320   0.65910   Biso      1.000     C          0.10357899999999999           
         C10       1.0000    0.49770   0.12899   0.08580   Biso      1.000     C          0.024313  
         C11       1.0000    0.90790   0.58100   0.55460   Biso      1.000     C          -0.12208800000000002          
         C12       1.0000    0.35920   0.16910   0.84590   Biso      1.000     C          0.5999680000000001  
         C13       1.0000    0.85970   0.56050   0.42280   Biso      1.000     C          -0.022719999999999997         
         C14       1.0000    0.46050   0.16089   0.20240   Biso      1.000     C          0.584902  
         C15       1.0000    0.76270   0.51290   0.40050   Biso      1.000     C          -0.150489           
         C16       1.0000    0.72150   0.48886   0.51270   Biso      1.000     C          0.139845  
         C17       1.0000    0.61780   0.43993   0.50750   Biso      1.000     C          0.296815  
         C18       1.0000    0.45600   0.36897   0.44580   Biso      1.000     C          0.037781  
         C19       1.0000    0.49770   0.37101   0.58580   Biso      1.000     C          0.024302  
         C20       1.0000    0.35920   0.33090   0.34590   Biso      1.000     C          0.599981  
         C21       1.0000    0.46050   0.33911   0.70240   Biso      1.000     C          0.584903  
         C22       1.0000    0.52140   0.47856   0.06130   Biso      1.000     C          0.489001  
         C23       1.0000    0.95620   0.52014   0.03820   Biso      1.000     C          0.478933  
         C24       1.0000    0.93730   0.32435   0.87800   Biso      1.000     C          0.49641599999999997           
         C25       1.0000    0.95220   0.15027   0.52500   Biso      1.000     C          0.49785799999999997           
         C26       1.0000    0.93730   0.17565   0.37800   Biso      1.000     C          0.49642299999999995           
         C27       1.0000    0.14030   0.43950   0.57720   Biso      1.000     C          -0.022713           
         C28       1.0000    0.95220   0.34973   0.02500   Biso      1.000     C          0.497853  
         C29       1.0000    0.52140   0.02144   0.56130   Biso      1.000     C          0.488991  
         C30       1.0000    0.27850   0.51114   0.48730   Biso      1.000     C          0.139845  
         C31       1.0000    0.86540   0.94680   0.15910   Biso      1.000     C          0.10357899999999999           
         C32       1.0000    0.09210   0.08100   0.94540   Biso      1.000     C          -0.12208  
         C33       1.0000    0.90790   0.91900   0.05460   Biso      1.000     C          -0.122071           
         C34       1.0000    0.14030   0.06050   0.07720   Biso      1.000     C          -0.022718000000000002         
         C35       1.0000    0.85970   0.93950   0.92280   Biso      1.000     C          -0.022719999999999997         
         C36       1.0000    0.23730   0.01290   0.09950   Biso      1.000     C          -0.150489           
         C37       1.0000    0.27850   0.98886   0.98730   Biso      1.000     C          0.139845  
         C38       1.0000    0.38220   0.93993   0.99250   Biso      1.000     C          0.296815  
         C39       1.0000    0.54400   0.86897   0.05420   Biso      1.000     C          0.037781999999999996          
         C40       1.0000    0.50230   0.87101   0.91420   Biso      1.000     C          0.024309  
         C41       1.0000    0.64080   0.83090   0.15410   Biso      1.000     C          0.599979  
         C42       1.0000    0.95620   0.97986   0.53820   Biso      1.000     C          0.478934  
         C43       1.0000    0.53950   0.83911   0.79760   Biso      1.000     C          0.584912  
         C44       1.0000    0.04380   0.02014   0.46180   Biso      1.000     C          0.478922  
         C45       1.0000    0.06270   0.82435   0.62200   Biso      1.000     C          0.496383  
         C46       1.0000    0.04780   0.84973   0.47500   Biso      1.000     C          0.497806  
         C47       1.0000    0.04780   0.65027   0.97500   Biso      1.000     C          0.497809  
         C48       1.0000    0.06270   0.67565   0.12200   Biso      1.000     C          0.496381  
         C49       1.0000    0.04380   0.47986   0.96180   Biso      1.000     C          0.478919  
         C50       1.0000    0.47860   0.52144   0.93870   Biso      1.000     C          0.48899799999999993           
         C51       1.0000    0.53950   0.66089   0.29760   Biso      1.000     C          0.584901  
         C52       1.0000    0.64080   0.66910   0.65410   Biso      1.000     C          0.5999800000000001  
         C53       1.0000    0.50230   0.62899   0.41420   Biso      1.000     C          0.024314  
         C54       1.0000    0.54400   0.63103   0.55420   Biso      1.000     C          0.037783  
         C55       1.0000    0.38220   0.56007   0.49250   Biso      1.000     C          0.296824  
         C56       1.0000    0.47860   0.97856   0.43870   Biso      1.000     C          0.488991  
         Eu1       1.0000    0.71812   0.43501   0.85624   Biso      1.000     Eu          1.1696540000000002  
         Eu2       1.0000    0.74915   0.72216   0.95684   Biso      1.000     Eu          1.460687  
         Eu3       1.0000    0.25085   0.22216   0.54316   Biso      1.000     Eu          1.460652  
         Eu4       1.0000    0.71812   0.06499   0.35624   Biso      1.000     Eu          1.169653  
         Eu5       1.0000    0.74915   0.77784   0.45684   Biso      1.000     Eu          1.4606709999999998  
         Eu6       1.0000    0.28188   0.93501   0.64376   Biso      1.000     Eu          1.169651  
         Eu7       1.0000    0.28188   0.56499   0.14376   Biso      1.000     Eu          1.169656  
         Eu8       1.0000    0.25085   0.27784   0.04316   Biso      1.000     Eu          1.460653  
         H1        1.0000    0.89189   0.57839   0.34958   Biso      1.000     H          0.12183699999999999           
         H2        1.0000    0.97017   0.61424   0.57139   Biso      1.000     H          0.130553  
         H3        1.0000    0.90300   0.56664   0.74846   Biso      1.000     H          0.094908  
         H4        1.0000    0.47554   0.92839   0.17975   Biso      1.000     H          0.31558200000000003           
         H5        1.0000    0.27315   0.99786   0.18772   Biso      1.000     H          0.138797  
         H6        1.0000    0.52446   0.42839   0.32025   Biso      1.000     H          0.31558   
         H7        1.0000    0.10811   0.07839   0.15042   Biso      1.000     H          0.12183   
         H8        1.0000    0.02983   0.11424   0.92861   Biso      1.000     H          0.130547  
         H9        1.0000    0.72685   0.49786   0.31228   Biso      1.000     H          0.1388    
         H10       1.0000    0.90300   0.93336   0.24846   Biso      1.000     H          0.094908  
         H11       1.0000    0.02983   0.38576   0.42861   Biso      1.000     H          0.130551  
         H12       1.0000    0.47554   0.57161   0.67975   Biso      1.000     H          0.315583  
         H13       1.0000    0.27315   0.50214   0.68772   Biso      1.000     H          0.138801  
         H14       1.0000    0.10811   0.42161   0.65042   Biso      1.000     H          0.121832  
         H15       1.0000    0.97017   0.88576   0.07139   Biso      1.000     H          0.130546  
         H16       1.0000    0.09700   0.43336   0.25154   Biso      1.000     H          0.09490900000000001           
         H17       1.0000    0.52446   0.07161   0.82025   Biso      1.000     H          0.31558200000000003           
         H18       1.0000    0.72685   0.00214   0.81228   Biso      1.000     H          0.138795  
         H19       1.0000    0.09700   0.06664   0.75154   Biso      1.000     H          0.094908  
         H20       1.0000    0.89189   0.92161   0.84958   Biso      1.000     H          0.121832  
         N1        1.0000    0.53460   0.41342   0.39970   Biso      1.000     N          -0.276237           
         N2        1.0000    0.22720   0.49221   0.35820   Biso      1.000     N          -0.280746           
         N3        1.0000    0.40180   0.58492   0.37860   Biso      1.000     N          -0.38517199999999996          
         N4        1.0000    0.46540   0.58658   0.60030   Biso      1.000     N          -0.276233           
         N5        1.0000    0.59820   0.41508   0.62140   Biso      1.000     N          -0.385181           
         N6        1.0000    0.46540   0.91342   0.10030   Biso      1.000     N          -0.276235           
         N7        1.0000    0.40180   0.91508   0.87860   Biso      1.000     N          -0.38518  
         N8        1.0000    0.22720   0.00779   0.85820   Biso      1.000     N          -0.28074899999999997          
         N9        1.0000    0.77280   0.99221   0.14180   Biso      1.000     N          -0.28074699999999997          
         N10       1.0000    0.59820   0.08492   0.12140   Biso      1.000     N          -0.385177           
         N11       1.0000    0.53460   0.08658   0.89970   Biso      1.000     N          -0.276242           
         N12       1.0000    0.77280   0.50779   0.64180   Biso      1.000     N          -0.280746           
         O1        1.0000    0.82170   0.98098   0.49630   Biso      1.000     O          -0.458531           
         O2        1.0000    0.47820   0.86010   0.68190   Biso      1.000     O          -0.488994           
         O3        1.0000    0.62380   0.79600   0.81170   Biso      1.000     O          -0.586041           
         O4        1.0000    0.72050   0.79379   0.11390   Biso      1.000     O          -0.624012           
         O5        1.0000    0.63290   0.83882   0.27540   Biso      1.000     O          -0.57334  
         O6        1.0000    0.63290   0.66118   0.77540   Biso      1.000     O          -0.573338           
         O7        1.0000    0.72050   0.70621   0.61390   Biso      1.000     O          -0.624007           
         O8        1.0000    0.62380   0.70400   0.31170   Biso      1.000     O          -0.5860390000000001           
         O9        1.0000    0.47820   0.63990   0.18190   Biso      1.000     O          -0.48898500000000006          
         O10       1.0000    0.97570   0.44898   0.86740   Biso      1.000     O          -0.48139799999999994          
         O11       1.0000    0.97570   0.05102   0.36740   Biso      1.000     O          -0.48140900000000003          
         O12       1.0000    0.17830   0.48098   0.00370   Biso      1.000     O          -0.45852600000000004          
         O13       1.0000    0.39950   0.56390   0.95120   Biso      1.000     O          -0.39508499999999996          
         O14       1.0000    0.15110   0.62078   0.95270   Biso      1.000     O          -0.429982           
         O15       1.0000    0.16790   0.65797   0.20950   Biso      1.000     O          -0.409721           
         O16       1.0000    0.96530   0.71058   0.13910   Biso      1.000     O          -0.506089           
         O17       1.0000    0.93250   0.66083   0.89450   Biso      1.000     O          -0.495461           
         O18       1.0000    0.37620   0.29600   0.68830   Biso      1.000     O          -0.586036           
         O19       1.0000    0.52180   0.36010   0.81810   Biso      1.000     O          -0.488983           
         O20       1.0000    0.02430   0.55102   0.13260   Biso      1.000     O          -0.4814   
         O21       1.0000    0.82170   0.51902   0.99630   Biso      1.000     O          -0.458538           
         O22       1.0000    0.52990   0.50961   0.83540   Biso      1.000     O          -0.49528199999999994          
         O23       1.0000    0.17830   0.01902   0.50370   Biso      1.000     O          -0.458517           
         O24       1.0000    0.52990   0.99039   0.33540   Biso      1.000     O          -0.495274           
         O25       1.0000    0.39950   0.93610   0.45120   Biso      1.000     O          -0.395079           
         O26       1.0000    0.47010   0.00961   0.66460   Biso      1.000     O          -0.49527299999999996          
         O27       1.0000    0.60050   0.06390   0.54880   Biso      1.000     O          -0.395082           
         O28       1.0000    0.84890   0.12078   0.54730   Biso      1.000     O          -0.429982           
         O29       1.0000    0.83210   0.15797   0.29050   Biso      1.000     O          -0.40972299999999995          
         O30       1.0000    0.03470   0.21058   0.36090   Biso      1.000     O          -0.5060819999999999           
         O31       1.0000    0.06750   0.16083   0.60550   Biso      1.000     O          -0.495478           
         O32       1.0000    0.83210   0.34203   0.79050   Biso      1.000     O          -0.40972700000000006          
         O33       1.0000    0.52180   0.13990   0.31810   Biso      1.000     O          -0.48900699999999997          
         O34       1.0000    0.37620   0.20400   0.18830   Biso      1.000     O          -0.5860380000000001           
         O35       1.0000    0.27950   0.20621   0.88610   Biso      1.000     O          -0.623999           
         O36       1.0000    0.03470   0.28942   0.86090   Biso      1.000     O          -0.506083           
         O37       1.0000    0.06750   0.33917   0.10550   Biso      1.000     O          -0.495482           
         O38       1.0000    0.36710   0.16118   0.72460   Biso      1.000     O          -0.573341           
         O39       1.0000    0.84890   0.37922   0.04730   Biso      1.000     O          -0.429983           
         O40       1.0000    0.36710   0.33882   0.22460   Biso      1.000     O          -0.573343           
         O41       1.0000    0.27950   0.29379   0.38610   Biso      1.000     O          -0.6240060000000001           
         O42       1.0000    0.60050   0.43610   0.04880   Biso      1.000     O          -0.39509  
         O43       1.0000    0.93250   0.83917   0.39450   Biso      1.000     O          -0.495453           
         O44       1.0000    0.96530   0.78942   0.63910   Biso      1.000     O          -0.50608  
         O45       1.0000    0.16790   0.84203   0.70950   Biso      1.000     O          -0.409708           
         O46       1.0000    0.15110   0.87922   0.45270   Biso      1.000     O          -0.42998100000000006          
         O47       1.0000    0.02430   0.94898   0.63260   Biso      1.000     O          -0.48140299999999997          
         O48       1.0000    0.47010   0.49039   0.16460   Biso      1.000     O          -0.49528 