
##########################################################################
#               Crystallographic Information Format file
#               Produced by PyCifRW module
#
#  This is a CIF file.  CIF has been adopted by the International
#  Union of Crystallography as the standard for data archiving and
#  transmission.
#
#  For information on this file format, follow the CIF links at
#  http://www.iucr.org
##########################################################################

data_image0

_cell_length_a                          10.205
_cell_length_b                          21.215
_cell_length_c                          7.866
_cell_angle_alpha                       90
_cell_angle_beta                        98.642
_cell_angle_gamma                       90
_symmetry_space_group_name_H-M          'P 1'
_symmetry_int_tables_number             1
loop_
  _symmetry_equiv_pos_as_xyz
         'x, y, z' 
loop_
  _atom_site_label
  _atom_site_occupancy
  _atom_site_fract_x
  _atom_site_fract_y
  _atom_site_fract_z
  _atom_site_thermal_displace_type
  _atom_site_B_iso_or_equiv
  _atom_site_type_symbol
  _atom_site_charge
         C1        1.0000    0.50000   0.12690   0.63490   Biso      1.000     C          0.732112  
         C2        1.0000    0.07070   0.80420   0.70700   Biso      1.000     C          0.175401  
         C3        1.0000    0.11500   0.74330   0.69510   Biso      1.000     C          -0.230336           
         C4        1.0000    0.03060   0.69500   0.73330   Biso      1.000     C          0.16472799999999999           
         C5        1.0000    0.24850   0.72800   0.64300   Biso      1.000     C          0.688427  
         C6        1.0000    0.96940   0.30500   0.26670   Biso      1.000     C          0.16472799999999999           
         C7        1.0000    0.88500   0.25670   0.30490   Biso      1.000     C          -0.230337           
         C8        1.0000    0.92930   0.19580   0.29300   Biso      1.000     C          0.175403  
         C9        1.0000    0.05200   0.18220   0.24860   Biso      1.000     C          0.172155  
         C10       1.0000    0.13520   0.22950   0.21380   Biso      1.000     C          -0.224156           
         C11       1.0000    0.08980   0.29170   0.22060   Biso      1.000     C          0.158495  
         C12       1.0000    0.50000   0.87310   0.36510   Biso      1.000     C          0.732112  
         C13       1.0000    0.50090   0.93920   0.43020   Biso      1.000     C          -0.21864099999999997          
         C14       1.0000    0.94800   0.81780   0.75140   Biso      1.000     C          0.172155  
         C15       1.0000    0.38490   0.97010   0.44380   Biso      1.000     C          0.158881  
         C16       1.0000    0.91020   0.79170   0.27940   Biso      1.000     C          0.158487  
         C17       1.0000    0.86480   0.72950   0.28620   Biso      1.000     C          -0.22416  
         C18       1.0000    0.94800   0.68220   0.25140   Biso      1.000     C          0.172158  
         C19       1.0000    0.07070   0.69580   0.20700   Biso      1.000     C          0.175403  
         C20       1.0000    0.11500   0.75670   0.19510   Biso      1.000     C          -0.230337           
         C21       1.0000    0.03060   0.80500   0.23330   Biso      1.000     C          0.164737  
         C22       1.0000    0.24850   0.77200   0.14300   Biso      1.000     C          0.688427  
         C23       1.0000    0.73150   0.71630   0.34020   Biso      1.000     C          0.6914640000000001  
         C24       1.0000    0.38350   0.46980   0.00720   Biso      1.000     C          0.162518  
         C25       1.0000    0.61510   0.47010   0.05620   Biso      1.000     C          0.158878  
         C26       1.0000    0.49910   0.43920   0.06980   Biso      1.000     C          -0.218631           
         C27       1.0000    0.50000   0.37310   0.13490   Biso      1.000     C          0.732111  
         C28       1.0000    0.61650   0.96980   0.49280   Biso      1.000     C          0.162525  
         C29       1.0000    0.86480   0.77050   0.78620   Biso      1.000     C          -0.224156           
         C30       1.0000    0.73150   0.78370   0.84020   Biso      1.000     C          0.691463  
         C31       1.0000    0.61650   0.53020   0.99280   Biso      1.000     C          0.162523  
         C32       1.0000    0.26850   0.28370   0.65980   Biso      1.000     C          0.691463  
         C33       1.0000    0.75150   0.22800   0.85700   Biso      1.000     C          0.688427  
         C34       1.0000    0.96940   0.19500   0.76670   Biso      1.000     C          0.16472799999999999           
         C35       1.0000    0.88500   0.24330   0.80490   Biso      1.000     C          -0.230337           
         C36       1.0000    0.92930   0.30420   0.79300   Biso      1.000     C          0.175403  
         C37       1.0000    0.05200   0.31780   0.74860   Biso      1.000     C          0.172155  
         C38       1.0000    0.13520   0.27050   0.71380   Biso      1.000     C          -0.224156           
         C39       1.0000    0.08980   0.20830   0.72060   Biso      1.000     C          0.158495  
         C40       1.0000    0.26850   0.21630   0.15980   Biso      1.000     C          0.691463  
         C41       1.0000    0.91020   0.70830   0.77940   Biso      1.000     C          0.158495  
         C42       1.0000    0.38350   0.03020   0.50720   Biso      1.000     C          0.162522  
         C43       1.0000    0.49910   0.06080   0.56980   Biso      1.000     C          -0.218635           
         C44       1.0000    0.75150   0.27200   0.35700   Biso      1.000     C          0.688427  
         C45       1.0000    0.50000   0.62690   0.86510   Biso      1.000     C          0.732111  
         C46       1.0000    0.50090   0.56080   0.93020   Biso      1.000     C          -0.218635           
         C47       1.0000    0.38490   0.52990   0.94380   Biso      1.000     C          0.158885  
         C48       1.0000    0.61510   0.02990   0.55620   Biso      1.000     C          0.158884  
         F1        1.0000    0.91080   0.62190   0.25740   Biso      1.000     F          -0.09089  
         F2        1.0000    0.73220   0.94130   0.48360   Biso      1.000     F          -0.101564           
         F3        1.0000    0.26910   0.94100   0.38730   Biso      1.000     F          -0.107803           
         F4        1.0000    0.06880   0.86480   0.22750   Biso      1.000     F          -0.081429           
         F5        1.0000    0.85390   0.14790   0.33590   Biso      1.000     F          -0.100709           
         F6        1.0000    0.73090   0.44100   0.11270   Biso      1.000     F          -0.107803           
         F7        1.0000    0.93120   0.36480   0.27250   Biso      1.000     F          -0.081428           
         F8        1.0000    0.08920   0.37810   0.74260   Biso      1.000     F          -0.09089  
         F9        1.0000    0.83540   0.83890   0.32360   Biso      1.000     F          -0.086267           
         F10       1.0000    0.85390   0.35210   0.83590   Biso      1.000     F          -0.100709           
         F11       1.0000    0.16460   0.16110   0.67640   Biso      1.000     F          -0.086267           
         F12       1.0000    0.93120   0.13520   0.77250   Biso      1.000     F          -0.081428           
         F13       1.0000    0.73090   0.05900   0.61270   Biso      1.000     F          -0.107804           
         F14       1.0000    0.16460   0.33890   0.17640   Biso      1.000     F          -0.086267           
         F15       1.0000    0.26780   0.05870   0.51640   Biso      1.000     F          -0.101564           
         F16       1.0000    0.26910   0.55900   0.88730   Biso      1.000     F          -0.107804           
         F17       1.0000    0.06880   0.63520   0.72750   Biso      1.000     F          -0.081428           
         F18       1.0000    0.83540   0.66110   0.82360   Biso      1.000     F          -0.086267           
         F19       1.0000    0.14610   0.85210   0.66410   Biso      1.000     F          -0.100709           
         F20       1.0000    0.91080   0.87810   0.75740   Biso      1.000     F          -0.09089  
         F21       1.0000    0.08920   0.12190   0.24260   Biso      1.000     F          -0.09089  
         F22       1.0000    0.26780   0.44130   0.01640   Biso      1.000     F          -0.101564           
         F23       1.0000    0.73220   0.55870   0.98360   Biso      1.000     F          -0.101564           
         F24       1.0000    0.14610   0.64790   0.16410   Biso      1.000     F          -0.100709           
         Nd1       1.0000    0.49075   0.78473   0.99580   Biso      1.000     Nd          2.154902  
         Nd2       1.0000    0.49075   0.71527   0.49580   Biso      1.000     Nd          2.154902  
         Nd3       1.0000    0.50925   0.28473   0.50420   Biso      1.000     Nd          2.154902  
         Nd4       1.0000    0.50925   0.21527   0.00420   Biso      1.000     Nd          2.154902  
         O1        1.0000    0.74530   0.18970   0.96940   Biso      1.000     O          -0.579298           
         O2        1.0000    0.65060   0.25770   0.78300   Biso      1.000     O          -0.768386           
         O3        1.0000    0.51280   0.16960   0.52970   Biso      1.000     O          -0.654216           
         O4        1.0000    0.48840   0.13330   0.79140   Biso      1.000     O          -0.669787           
         O5        1.0000    0.37030   0.25950   0.74660   Biso      1.000     O          -0.760134           
         O6        1.0000    0.27550   0.18420   0.03390   Biso      1.000     O          -0.585477           
         O7        1.0000    0.37030   0.24050   0.24660   Biso      1.000     O          -0.760134           
         O8        1.0000    0.48840   0.36670   0.29140   Biso      1.000     O          -0.669787           
         O9        1.0000    0.51280   0.33040   0.02970   Biso      1.000     O          -0.654216           
         O10       1.0000    0.65060   0.24230   0.28300   Biso      1.000     O          -0.768386           
         O11       1.0000    0.74530   0.31030   0.46940   Biso      1.000     O          -0.579298           
         O12       1.0000    0.62970   0.74050   0.25340   Biso      1.000     O          -0.760134           
         O13       1.0000    0.25470   0.68970   0.53060   Biso      1.000     O          -0.579298           
         O14       1.0000    0.34940   0.75770   0.71700   Biso      1.000     O          -0.768386           
         O15       1.0000    0.48720   0.66960   0.97030   Biso      1.000     O          -0.654215           
         O16       1.0000    0.51160   0.63330   0.70860   Biso      1.000     O          -0.669787           
         O17       1.0000    0.62970   0.75950   0.75340   Biso      1.000     O          -0.760134           
         O18       1.0000    0.72450   0.81580   0.96610   Biso      1.000     O          -0.585477           
         O19       1.0000    0.25470   0.81030   0.03060   Biso      1.000     O          -0.579298           
         O20       1.0000    0.34940   0.74230   0.21700   Biso      1.000     O          -0.768386           
         O21       1.0000    0.48720   0.83040   0.47030   Biso      1.000     O          -0.654215           
         O22       1.0000    0.51160   0.86670   0.20860   Biso      1.000     O          -0.669787           
         O23       1.0000    0.72450   0.68420   0.46610   Biso      1.000     O          -0.585477           
         O24       1.0000    0.27550   0.31580   0.53390   Biso      1.000     O          -0.585477 