
##########################################################################
#               Crystallographic Information Format file
#               Produced by PyCifRW module
#
#  This is a CIF file.  CIF has been adopted by the International
#  Union of Crystallography as the standard for data archiving and
#  transmission.
#
#  For information on this file format, follow the CIF links at
#  http://www.iucr.org
##########################################################################

data_image0

_cell_length_a                          10.212
_cell_length_b                          21.288
_cell_length_c                          7.905
_cell_angle_alpha                       90
_cell_angle_beta                        98.851
_cell_angle_gamma                       90
_symmetry_space_group_name_H-M          'P 1'
_symmetry_int_tables_number             1
loop_
  _symmetry_equiv_pos_as_xyz
         'x, y, z' 
loop_
  _atom_site_label
  _atom_site_occupancy
  _atom_site_fract_x
  _atom_site_fract_y
  _atom_site_fract_z
  _atom_site_thermal_displace_type
  _atom_site_B_iso_or_equiv
  _atom_site_type_symbol
  _atom_site_charge
         C1        1.0000    0.52940   0.80360   0.23240   Biso      1.000     C          0.163916  
         C2        1.0000    0.99970   0.56020   0.93330   Biso      1.000     C          -0.232988           
         C3        1.0000    0.61260   0.75660   0.19400   Biso      1.000     C          -0.21973600000000001          
         C4        1.0000    0.99930   0.62720   0.86360   Biso      1.000     C          0.725489  
         C5        1.0000    0.56900   0.69630   0.20520   Biso      1.000     C          0.17510499999999998           
         C6        1.0000    0.40890   0.79200   0.27840   Biso      1.000     C          0.16728099999999999           
         C7        1.0000    0.88250   0.52960   0.94220   Biso      1.000     C          0.160074  
         C8        1.0000    0.11690   0.52990   0.99160   Biso      1.000     C          0.161187  
         C9        1.0000    0.88310   0.47010   0.00840   Biso      1.000     C          0.161189  
         C10       1.0000    0.23090   0.78330   0.83830   Biso      1.000     C          0.6821659999999999  
         C11       1.0000    0.74710   0.72800   0.64300   Biso      1.000     C          0.683103  
         C12       1.0000    0.36370   0.76990   0.78840   Biso      1.000     C          -0.220383           
         C13       1.0000    0.44800   0.81710   0.74970   Biso      1.000     C          0.17017100000000002           
         C14       1.0000    0.99970   0.93980   0.43330   Biso      1.000     C          -0.232988           
         C15       1.0000    0.61260   0.74340   0.69400   Biso      1.000     C          -0.219743           
         C16       1.0000    0.44800   0.68290   0.24970   Biso      1.000     C          0.170181  
         C17       1.0000    0.99930   0.87280   0.36360   Biso      1.000     C          0.725489  
         C18       1.0000    0.40890   0.70800   0.77840   Biso      1.000     C          0.167269  
         C19       1.0000    0.88250   0.97040   0.44220   Biso      1.000     C          0.160074  
         C20       1.0000    0.11690   0.97010   0.49160   Biso      1.000     C          0.161187  
         C21       1.0000    0.52940   0.69640   0.73240   Biso      1.000     C          0.163932  
         C22       1.0000    0.76910   0.28330   0.66170   Biso      1.000     C          0.6821659999999999  
         C23       1.0000    0.25290   0.22800   0.85700   Biso      1.000     C          0.683103  
         C24       1.0000    0.63630   0.26990   0.71160   Biso      1.000     C          -0.220383           
         C25       1.0000    0.55200   0.31710   0.75030   Biso      1.000     C          0.17017100000000002           
         C26       1.0000    0.00030   0.43980   0.06670   Biso      1.000     C          -0.232987           
         C27       1.0000    0.38740   0.24340   0.80600   Biso      1.000     C          -0.219743           
         C28       1.0000    0.00070   0.37280   0.13640   Biso      1.000     C          0.725489  
         C29       1.0000    0.43100   0.30370   0.79480   Biso      1.000     C          0.17511600000000002           
         C30       1.0000    0.59110   0.20800   0.72160   Biso      1.000     C          0.167269  
         C31       1.0000    0.11750   0.47040   0.05780   Biso      1.000     C          0.160078  
         C32       1.0000    0.56900   0.80370   0.70520   Biso      1.000     C          0.17511600000000002           
         C33       1.0000    0.36370   0.73010   0.28840   Biso      1.000     C          -0.220385           
         C34       1.0000    0.47060   0.19640   0.76760   Biso      1.000     C          0.163932  
         C35       1.0000    0.00070   0.12720   0.63640   Biso      1.000     C          0.725489  
         C36       1.0000    0.25290   0.27200   0.35700   Biso      1.000     C          0.6831020000000001  
         C37       1.0000    0.76910   0.21670   0.16170   Biso      1.000     C          0.6821659999999999  
         C38       1.0000    0.88310   0.02990   0.50840   Biso      1.000     C          0.161189  
         C39       1.0000    0.47060   0.30360   0.26760   Biso      1.000     C          0.163916  
         C40       1.0000    0.59110   0.29200   0.22160   Biso      1.000     C          0.16728099999999999           
         C41       1.0000    0.74710   0.77200   0.14300   Biso      1.000     C          0.6831020000000001  
         C42       1.0000    0.38740   0.25660   0.30600   Biso      1.000     C          -0.21973600000000001          
         C43       1.0000    0.43100   0.19630   0.29480   Biso      1.000     C          0.17510499999999998           
         C44       1.0000    0.55200   0.18290   0.25030   Biso      1.000     C          0.170181  
         C45       1.0000    0.23090   0.71670   0.33830   Biso      1.000     C          0.6821659999999999  
         C46       1.0000    0.63630   0.23010   0.21160   Biso      1.000     C          -0.220385           
         C47       1.0000    0.00030   0.06020   0.56670   Biso      1.000     C          -0.232987           
         C48       1.0000    0.11750   0.02960   0.55780   Biso      1.000     C          0.160078  
         F1        1.0000    0.35630   0.35220   0.83780   Biso      1.000     F          -0.10568599999999999          
         F2        1.0000    0.43190   0.13560   0.77250   Biso      1.000     F          -0.09864500000000001          
         F3        1.0000    0.23070   0.94080   0.48450   Biso      1.000     F          -0.100396           
         F4        1.0000    0.23020   0.05900   0.61230   Biso      1.000     F          -0.093042           
         F5        1.0000    0.35630   0.14780   0.33780   Biso      1.000     F          -0.10568499999999999          
         F6        1.0000    0.76980   0.94100   0.38770   Biso      1.000     F          -0.093041           
         F7        1.0000    0.64370   0.85220   0.66220   Biso      1.000     F          -0.10568599999999999          
         F8        1.0000    0.66600   0.16120   0.67750   Biso      1.000     F          -0.083285           
         F9        1.0000    0.56810   0.63560   0.72750   Biso      1.000     F          -0.09864500000000001          
         F10       1.0000    0.23020   0.44100   0.11230   Biso      1.000     F          -0.093041           
         F11       1.0000    0.43190   0.36440   0.27250   Biso      1.000     F          -0.09864400000000001          
         F12       1.0000    0.56810   0.86440   0.22750   Biso      1.000     F          -0.09864400000000001          
         F13       1.0000    0.64370   0.64780   0.16220   Biso      1.000     F          -0.10568499999999999          
         F14       1.0000    0.76980   0.55900   0.88770   Biso      1.000     F          -0.093041           
         F15       1.0000    0.33400   0.83880   0.32250   Biso      1.000     F          -0.083286           
         F16       1.0000    0.76930   0.44080   0.01550   Biso      1.000     F          -0.100397           
         F17       1.0000    0.41060   0.62270   0.25840   Biso      1.000     F          -0.092097           
         F18       1.0000    0.33400   0.66120   0.82250   Biso      1.000     F          -0.083285           
         F19       1.0000    0.58940   0.37730   0.74160   Biso      1.000     F          -0.092097           
         F20       1.0000    0.58940   0.12270   0.24160   Biso      1.000     F          -0.092097           
         F21       1.0000    0.23070   0.55920   0.98450   Biso      1.000     F          -0.100397           
         F22       1.0000    0.66600   0.33880   0.17750   Biso      1.000     F          -0.083286           
         F23       1.0000    0.41060   0.87730   0.75840   Biso      1.000     F          -0.092097           
         F24       1.0000    0.76930   0.05920   0.51550   Biso      1.000     F          -0.100397           
         O1        1.0000    0.01450   0.33020   0.03070   Biso      1.000     O          -0.660155           
         O2        1.0000    0.77550   0.18380   0.03380   Biso      1.000     O          -0.593978           
         O3        1.0000    0.98980   0.36720   0.29110   Biso      1.000     O          -0.6585770000000001           
         O4        1.0000    0.15220   0.24200   0.28290   Biso      1.000     O          -0.762251           
         O5        1.0000    0.98980   0.13280   0.79110   Biso      1.000     O          -0.6585770000000001           
         O6        1.0000    0.15220   0.25800   0.78290   Biso      1.000     O          -0.762251           
         O7        1.0000    0.24640   0.31010   0.47030   Biso      1.000     O          -0.57734  
         O8        1.0000    0.87090   0.24050   0.24850   Biso      1.000     O          -0.747451           
         O9        1.0000    0.01020   0.63280   0.70890   Biso      1.000     O          -0.6585770000000001           
         O10       1.0000    0.24640   0.18990   0.97030   Biso      1.000     O          -0.57734  
         O11       1.0000    0.84780   0.74200   0.21710   Biso      1.000     O          -0.762251           
         O12       1.0000    0.22450   0.68380   0.46620   Biso      1.000     O          -0.593978           
         O13       1.0000    0.75360   0.81010   0.02970   Biso      1.000     O          -0.57734  
         O14       1.0000    0.12910   0.74050   0.25150   Biso      1.000     O          -0.747451           
         O15       1.0000    0.98550   0.66980   0.96930   Biso      1.000     O          -0.660155           
         O16       1.0000    0.77550   0.31620   0.53380   Biso      1.000     O          -0.593978           
         O17       1.0000    0.75360   0.68990   0.52970   Biso      1.000     O          -0.57734  
         O18       1.0000    0.12910   0.75950   0.75150   Biso      1.000     O          -0.747451           
         O19       1.0000    0.84780   0.75800   0.71710   Biso      1.000     O          -0.762251           
         O20       1.0000    0.01020   0.86720   0.20890   Biso      1.000     O          -0.6585770000000001           
         O21       1.0000    0.01450   0.16980   0.53070   Biso      1.000     O          -0.660155           
         O22       1.0000    0.98550   0.83020   0.46930   Biso      1.000     O          -0.660155           
         O23       1.0000    0.87090   0.25950   0.74850   Biso      1.000     O          -0.747451           
         O24       1.0000    0.22450   0.81620   0.96620   Biso      1.000     O          -0.593978           
         Pr1       1.0000    0.98945   0.78495   0.99507   Biso      1.000     Pr          2.157507  
         Pr2       1.0000    0.98945   0.71505   0.49507   Biso      1.000     Pr          2.157507  
         Pr3       1.0000    0.01055   0.28495   0.50493   Biso      1.000     Pr          2.157508  
         Pr4       1.0000    0.01055   0.21505   0.00493   Biso      1.000     Pr          2.157508 