
##########################################################################
#               Crystallographic Information Format file
#               Produced by PyCifRW module
#
#  This is a CIF file.  CIF has been adopted by the International
#  Union of Crystallography as the standard for data archiving and
#  transmission.
#
#  For information on this file format, follow the CIF links at
#  http://www.iucr.org
##########################################################################

data_image0

_cell_length_a                          9.5261
_cell_length_b                          22.4729
_cell_length_c                          10.1216
_cell_angle_alpha                       90
_cell_angle_beta                        102.263
_cell_angle_gamma                       90
_symmetry_space_group_name_H-M          'P 1'
_symmetry_int_tables_number             1
loop_
  _symmetry_equiv_pos_as_xyz
         'x, y, z' 
loop_
  _atom_site_label
  _atom_site_occupancy
  _atom_site_fract_x
  _atom_site_fract_y
  _atom_site_fract_z
  _atom_site_thermal_displace_type
  _atom_site_B_iso_or_equiv
  _atom_site_type_symbol
  _atom_site_charge
         C1        1.0000    0.06410   0.82359   0.61610   Biso      1.000     C          0.519604  
         C2        1.0000    0.23840   0.48710   0.59520   Biso      1.000     C          -0.139051           
         C3        1.0000    0.27810   0.51148   0.48310   Biso      1.000     C          0.132597  
         C4        1.0000    0.38260   0.56003   0.48910   Biso      1.000     C          0.343211  
         C5        1.0000    0.50120   0.62905   0.41160   Biso      1.000     C          0.027372000000000004          
         C6        1.0000    0.54470   0.63077   0.55080   Biso      1.000     C          -0.025966000000000003         
         C7        1.0000    0.95230   0.15061   0.52730   Biso      1.000     C          0.516169  
         C8        1.0000    0.04770   0.84939   0.47270   Biso      1.000     C          0.516169  
         C9        1.0000    0.95540   0.97944   0.53770   Biso      1.000     C          0.500709  
         C10       1.0000    0.48020   0.97909   0.43820   Biso      1.000     C          0.51061   
         C11       1.0000    0.53720   0.83865   0.79460   Biso      1.000     C          0.654462  
         C12       1.0000    0.64150   0.83058   0.14940   Biso      1.000     C          0.66362   
         C13       1.0000    0.13190   0.05240   0.83900   Biso      1.000     C          0.116     
         C14       1.0000    0.08860   0.07940   0.94510   Biso      1.000     C          -0.132599           
         C15       1.0000    0.13970   0.05980   0.07510   Biso      1.000     C          -0.024896           
         C16       1.0000    0.23840   0.01290   0.09520   Biso      1.000     C          -0.139051           
         C17       1.0000    0.27810   0.98852   0.98310   Biso      1.000     C          0.132597  
         C18       1.0000    0.38260   0.93997   0.98910   Biso      1.000     C          0.343211  
         C19       1.0000    0.13970   0.44020   0.57510   Biso      1.000     C          -0.024899           
         C20       1.0000    0.50120   0.87095   0.91160   Biso      1.000     C          0.027372000000000004          
         C21       1.0000    0.08860   0.42060   0.44510   Biso      1.000     C          -0.132601           
         C22       1.0000    0.64150   0.66942   0.64940   Biso      1.000     C          0.66362   
         C23       1.0000    0.04460   0.02056   0.46230   Biso      1.000     C          0.500709  
         C24       1.0000    0.51980   0.02091   0.56180   Biso      1.000     C          0.51061   
         C25       1.0000    0.46280   0.16135   0.20540   Biso      1.000     C          0.654462  
         C26       1.0000    0.35850   0.16942   0.85060   Biso      1.000     C          0.66362   
         C27       1.0000    0.86810   0.94760   0.16100   Biso      1.000     C          0.116     
         C28       1.0000    0.91140   0.92060   0.05490   Biso      1.000     C          -0.132599           
         C29       1.0000    0.86030   0.94020   0.92490   Biso      1.000     C          -0.024896           
         C30       1.0000    0.76160   0.98710   0.90480   Biso      1.000     C          -0.139051           
         C31       1.0000    0.72190   0.01148   0.01690   Biso      1.000     C          0.132597  
         C32       1.0000    0.61740   0.06003   0.01090   Biso      1.000     C          0.343211  
         C33       1.0000    0.49880   0.12905   0.08840   Biso      1.000     C          0.027372000000000004          
         C34       1.0000    0.45530   0.13077   0.94920   Biso      1.000     C          -0.025966000000000003         
         C35       1.0000    0.06410   0.67641   0.11610   Biso      1.000     C          0.519604  
         C36       1.0000    0.04770   0.65061   0.97270   Biso      1.000     C          0.516169  
         C37       1.0000    0.95540   0.52056   0.03770   Biso      1.000     C          0.500709  
         C38       1.0000    0.48020   0.52091   0.93820   Biso      1.000     C          0.51061   
         C39       1.0000    0.53720   0.66135   0.29460   Biso      1.000     C          0.654462  
         C40       1.0000    0.13190   0.44760   0.33900   Biso      1.000     C          0.116005  
         C41       1.0000    0.54470   0.86923   0.05080   Biso      1.000     C          -0.025966000000000003         
         C42       1.0000    0.93590   0.17641   0.38390   Biso      1.000     C          0.519604  
         C43       1.0000    0.86030   0.55980   0.42490   Biso      1.000     C          -0.0249   
         C44       1.0000    0.04460   0.47944   0.96230   Biso      1.000     C          0.500709  
         C45       1.0000    0.51980   0.47909   0.06180   Biso      1.000     C          0.51061   
         C46       1.0000    0.46280   0.33865   0.70540   Biso      1.000     C          0.654462  
         C47       1.0000    0.35850   0.33058   0.35060   Biso      1.000     C          0.66362   
         C48       1.0000    0.86810   0.55240   0.66100   Biso      1.000     C          0.115999  
         C49       1.0000    0.95230   0.34939   0.02730   Biso      1.000     C          0.516169  
         C50       1.0000    0.76160   0.51290   0.40480   Biso      1.000     C          -0.139051           
         C51       1.0000    0.91140   0.57940   0.55490   Biso      1.000     C          -0.13259500000000002          
         C52       1.0000    0.61740   0.43997   0.51090   Biso      1.000     C          0.34321   
         C53       1.0000    0.49880   0.37095   0.58840   Biso      1.000     C          0.027372000000000004          
         C54       1.0000    0.45530   0.36923   0.44920   Biso      1.000     C          -0.025966000000000003         
         C55       1.0000    0.72190   0.48852   0.51690   Biso      1.000     C          0.132597  
         C56       1.0000    0.93590   0.32359   0.88390   Biso      1.000     C          0.519604  
         Gd1       1.0000    0.75077   0.72321   0.95157   Biso      1.000     Gd          2.148311  
         Gd2       1.0000    0.28105   0.56546   0.14154   Biso      1.000     Gd          1.89153   
         Gd3       1.0000    0.71895   0.06546   0.35846   Biso      1.000     Gd          1.89153   
         Gd4       1.0000    0.24923   0.22321   0.54843   Biso      1.000     Gd          2.148311  
         Gd5       1.0000    0.24923   0.27679   0.04843   Biso      1.000     Gd          2.148311  
         Gd6       1.0000    0.71895   0.43454   0.85846   Biso      1.000     Gd          1.89153   
         Gd7       1.0000    0.28105   0.93454   0.64154   Biso      1.000     Gd          1.89153   
         Gd8       1.0000    0.75077   0.77679   0.45157   Biso      1.000     Gd          2.148311  
         H1        1.0000    0.27624   0.99845   0.18149   Biso      1.000     H          0.148214  
         H2        1.0000    0.02435   0.38892   0.42907   Biso      1.000     H          0.128364  
         H3        1.0000    0.10957   0.42276   0.64759   Biso      1.000     H          0.12623099999999998           
         H4        1.0000    0.27624   0.50155   0.68149   Biso      1.000     H          0.148214  
         H5        1.0000    0.72376   0.49845   0.31851   Biso      1.000     H          0.148214  
         H6        1.0000    0.89043   0.57724   0.35241   Biso      1.000     H          0.12623099999999998           
         H7        1.0000    0.72376   0.00155   0.81851   Biso      1.000     H          0.148214  
         H8        1.0000    0.89043   0.92276   0.85241   Biso      1.000     H          0.12623   
         H9        1.0000    0.09441   0.43387   0.25200   Biso      1.000     H          0.101033  
         H10       1.0000    0.90559   0.93387   0.24800   Biso      1.000     H          0.101034  
         H11       1.0000    0.49162   0.41047   0.31994   Biso      1.000     H          0.33910300000000004           
         H12       1.0000    0.50838   0.58953   0.68006   Biso      1.000     H          0.33910300000000004           
         H13       1.0000    0.97565   0.88892   0.07093   Biso      1.000     H          0.128364  
         H14       1.0000    0.10957   0.07724   0.14759   Biso      1.000     H          0.12623   
         H15       1.0000    0.02435   0.11108   0.92907   Biso      1.000     H          0.128364  
         H16       1.0000    0.09441   0.06613   0.75200   Biso      1.000     H          0.101034  
         H17       1.0000    0.49162   0.08953   0.81994   Biso      1.000     H          0.33910300000000004           
         H18       1.0000    0.97565   0.61108   0.57093   Biso      1.000     H          0.128364  
         H19       1.0000    0.90559   0.56613   0.74800   Biso      1.000     H          0.101034  
         H20       1.0000    0.50838   0.91047   0.18006   Biso      1.000     H          0.33910300000000004           
         N1        1.0000    0.40090   0.91480   0.87610   Biso      1.000     N          -0.44560200000000005          
         N2        1.0000    0.46660   0.91373   0.09610   Biso      1.000     N          -0.273781           
         N3        1.0000    0.22550   0.00730   0.85460   Biso      1.000     N          -0.331393           
         N4        1.0000    0.46660   0.58627   0.59610   Biso      1.000     N          -0.273781           
         N5        1.0000    0.22550   0.49270   0.35460   Biso      1.000     N          -0.331393           
         N6        1.0000    0.59910   0.08520   0.12390   Biso      1.000     N          -0.44560200000000005          
         N7        1.0000    0.53340   0.08627   0.90390   Biso      1.000     N          -0.273781           
         N8        1.0000    0.77450   0.50730   0.64540   Biso      1.000     N          -0.331393           
         N9        1.0000    0.59910   0.41480   0.62390   Biso      1.000     N          -0.44560200000000005          
         N10       1.0000    0.40090   0.58520   0.37610   Biso      1.000     N          -0.44560200000000005          
         N11       1.0000    0.53340   0.41373   0.40390   Biso      1.000     N          -0.273781           
         N12       1.0000    0.77450   0.99270   0.14540   Biso      1.000     N          -0.331393           
         O1        1.0000    0.83130   0.15863   0.29570   Biso      1.000     O          -0.556737           
         O2        1.0000    0.52290   0.13977   0.31970   Biso      1.000     O          -0.602585           
         O3        1.0000    0.37970   0.20426   0.19200   Biso      1.000     O          -0.726966           
         O4        1.0000    0.27700   0.20576   0.89100   Biso      1.000     O          -0.720644           
         O5        1.0000    0.36750   0.16255   0.72980   Biso      1.000     O          -0.625953           
         O6        1.0000    0.60090   0.06359   0.55050   Biso      1.000     O          -0.5716720000000001           
         O7        1.0000    0.84940   0.11967   0.54940   Biso      1.000     O          -0.5507890000000001           
         O8        1.0000    0.84940   0.38033   0.04940   Biso      1.000     O          -0.5507890000000001           
         O9        1.0000    0.97680   0.05139   0.36880   Biso      1.000     O          -0.609344           
         O10       1.0000    0.17820   0.01884   0.50320   Biso      1.000     O          -0.602142           
         O11       1.0000    0.27700   0.29424   0.39100   Biso      1.000     O          -0.720644           
         O12       1.0000    0.37970   0.29574   0.69200   Biso      1.000     O          -0.726966           
         O13       1.0000    0.52290   0.36023   0.81970   Biso      1.000     O          -0.602585           
         O14       1.0000    0.83130   0.34137   0.79570   Biso      1.000     O          -0.556737           
         O15       1.0000    0.03170   0.28740   0.86720   Biso      1.000     O          -0.667608           
         O16       1.0000    0.06560   0.33787   0.11020   Biso      1.000     O          -0.6340720000000001           
         O17       1.0000    0.96830   0.78740   0.63280   Biso      1.000     O          -0.667608           
         O18       1.0000    0.46880   0.00912   0.66320   Biso      1.000     O          -0.625336           
         O19       1.0000    0.03170   0.21260   0.36720   Biso      1.000     O          -0.667608           
         O20       1.0000    0.47710   0.86023   0.68030   Biso      1.000     O          -0.602585           
         O21       1.0000    0.16870   0.84137   0.70430   Biso      1.000     O          -0.556737           
         O22       1.0000    0.82180   0.98116   0.49680   Biso      1.000     O          -0.602142           
         O23       1.0000    0.02320   0.94861   0.63120   Biso      1.000     O          -0.609344           
         O24       1.0000    0.93440   0.66213   0.88980   Biso      1.000     O          -0.6340720000000001           
         O25       1.0000    0.96830   0.71260   0.13280   Biso      1.000     O          -0.667608           
         O26       1.0000    0.16870   0.65863   0.20430   Biso      1.000     O          -0.556737           
         O27       1.0000    0.15060   0.61967   0.95060   Biso      1.000     O          -0.5507890000000001           
         O28       1.0000    0.47710   0.63977   0.18030   Biso      1.000     O          -0.602585           
         O29       1.0000    0.62030   0.70426   0.30800   Biso      1.000     O          -0.726966           
         O30       1.0000    0.72300   0.70576   0.60900   Biso      1.000     O          -0.720644           
         O31       1.0000    0.63250   0.66255   0.77020   Biso      1.000     O          -0.625953           
         O32       1.0000    0.39910   0.56359   0.94950   Biso      1.000     O          -0.5716720000000001           
         O33       1.0000    0.53120   0.50912   0.83680   Biso      1.000     O          -0.625336           
         O34       1.0000    0.02320   0.55139   0.13120   Biso      1.000     O          -0.609344           
         O35       1.0000    0.82180   0.51884   0.99680   Biso      1.000     O          -0.602142           
         O36       1.0000    0.53120   0.99088   0.33680   Biso      1.000     O          -0.625336           
         O37       1.0000    0.39910   0.93641   0.44950   Biso      1.000     O          -0.5716720000000001           
         O38       1.0000    0.63250   0.83745   0.27020   Biso      1.000     O          -0.625953           
         O39       1.0000    0.72300   0.79424   0.10900   Biso      1.000     O          -0.720644           
         O40       1.0000    0.62030   0.79574   0.80800   Biso      1.000     O          -0.726966           
         O41       1.0000    0.17820   0.48116   0.00320   Biso      1.000     O          -0.602142           
         O42       1.0000    0.97680   0.44861   0.86880   Biso      1.000     O          -0.609344           
         O43       1.0000    0.46880   0.49088   0.16320   Biso      1.000     O          -0.625336           
         O44       1.0000    0.60090   0.43641   0.05050   Biso      1.000     O          -0.5716720000000001           
         O45       1.0000    0.36750   0.33745   0.22980   Biso      1.000     O          -0.625953           
         O46       1.0000    0.15060   0.88033   0.45060   Biso      1.000     O          -0.5507890000000001           
         O47       1.0000    0.06560   0.16213   0.61020   Biso      1.000     O          -0.6340720000000001           
         O48       1.0000    0.93440   0.83787   0.38980   Biso      1.000     O          -0.6340720000000001 