
##########################################################################
#               Crystallographic Information Format file
#               Produced by PyCifRW module
#
#  This is a CIF file.  CIF has been adopted by the International
#  Union of Crystallography as the standard for data archiving and
#  transmission.
#
#  For information on this file format, follow the CIF links at
#  http://www.iucr.org
##########################################################################

data_image0

_cell_length_a                          9.4916
_cell_length_b                          22.4131
_cell_length_c                          10.1084
_cell_angle_alpha                       90
_cell_angle_beta                        102.5
_cell_angle_gamma                       90
_symmetry_space_group_name_H-M          'P 1'
_symmetry_int_tables_number             1
loop_
  _symmetry_equiv_pos_as_xyz
         'x, y, z' 
loop_
  _atom_site_label
  _atom_site_occupancy
  _atom_site_fract_x
  _atom_site_fract_y
  _atom_site_fract_z
  _atom_site_thermal_displace_type
  _atom_site_B_iso_or_equiv
  _atom_site_type_symbol
  _atom_site_charge
         C1        1.0000    0.06490   0.82319   0.61560   Biso      1.000     C          0.520891  
         C2        1.0000    0.23650   0.48770   0.59450   Biso      1.000     C          -0.147545           
         C3        1.0000    0.27850   0.51122   0.48260   Biso      1.000     C          0.138553  
         C4        1.0000    0.38160   0.56023   0.48810   Biso      1.000     C          0.312119  
         C5        1.0000    0.50100   0.62895   0.40990   Biso      1.000     C          0.022886  
         C6        1.0000    0.54500   0.63094   0.54930   Biso      1.000     C          0.006364  
         C7        1.0000    0.95260   0.15115   0.52920   Biso      1.000     C          0.5174989999999999  
         C8        1.0000    0.04740   0.84885   0.47080   Biso      1.000     C          0.5174979999999999  
         C9        1.0000    0.95580   0.97999   0.53800   Biso      1.000     C          0.501948  
         C10       1.0000    0.47980   0.97895   0.43830   Biso      1.000     C          0.511917  
         C11       1.0000    0.53800   0.83872   0.79320   Biso      1.000     C          0.657982  
         C12       1.0000    0.64280   0.83021   0.14800   Biso      1.000     C          0.671125  
         C13       1.0000    0.13100   0.05250   0.83850   Biso      1.000     C          0.12344000000000001           
         C14       1.0000    0.08750   0.07990   0.94350   Biso      1.000     C          -0.133203           
         C15       1.0000    0.13830   0.05950   0.07350   Biso      1.000     C          -0.024423           
         C16       1.0000    0.23650   0.01230   0.09450   Biso      1.000     C          -0.147545           
         C17       1.0000    0.27850   0.98878   0.98260   Biso      1.000     C          0.138553  
         C18       1.0000    0.38160   0.93977   0.98810   Biso      1.000     C          0.312119  
         C19       1.0000    0.13830   0.44050   0.57350   Biso      1.000     C          -0.024426           
         C20       1.0000    0.50100   0.87105   0.90990   Biso      1.000     C          0.022886  
         C21       1.0000    0.08750   0.42010   0.44350   Biso      1.000     C          -0.133208           
         C22       1.0000    0.64280   0.66979   0.64800   Biso      1.000     C          0.671125  
         C23       1.0000    0.04420   0.02001   0.46200   Biso      1.000     C          0.501948  
         C24       1.0000    0.52020   0.02105   0.56170   Biso      1.000     C          0.511917  
         C25       1.0000    0.46200   0.16128   0.20680   Biso      1.000     C          0.657982  
         C26       1.0000    0.35720   0.16979   0.85200   Biso      1.000     C          0.671125  
         C27       1.0000    0.86900   0.94750   0.16150   Biso      1.000     C          0.12344000000000001           
         C28       1.0000    0.91250   0.92010   0.05650   Biso      1.000     C          -0.133203           
         C29       1.0000    0.86170   0.94050   0.92650   Biso      1.000     C          -0.024423           
         C30       1.0000    0.76350   0.98770   0.90550   Biso      1.000     C          -0.147545           
         C31       1.0000    0.72150   0.01122   0.01740   Biso      1.000     C          0.138553  
         C32       1.0000    0.61840   0.06023   0.01190   Biso      1.000     C          0.312119  
         C33       1.0000    0.49900   0.12895   0.09010   Biso      1.000     C          0.022886  
         C34       1.0000    0.45500   0.13094   0.95070   Biso      1.000     C          0.006364  
         C35       1.0000    0.06490   0.67681   0.11560   Biso      1.000     C          0.520891  
         C36       1.0000    0.04740   0.65115   0.97080   Biso      1.000     C          0.5174979999999999  
         C37       1.0000    0.95580   0.52001   0.03800   Biso      1.000     C          0.501948  
         C38       1.0000    0.47980   0.52105   0.93830   Biso      1.000     C          0.511917  
         C39       1.0000    0.53800   0.66128   0.29320   Biso      1.000     C          0.657982  
         C40       1.0000    0.13100   0.44750   0.33850   Biso      1.000     C          0.123448  
         C41       1.0000    0.54500   0.86906   0.04930   Biso      1.000     C          0.006364  
         C42       1.0000    0.93510   0.17681   0.38440   Biso      1.000     C          0.520891  
         C43       1.0000    0.86170   0.55950   0.42650   Biso      1.000     C          -0.024427           
         C44       1.0000    0.76350   0.51230   0.40550   Biso      1.000     C          -0.147545           
         C45       1.0000    0.86900   0.55250   0.66150   Biso      1.000     C          0.12343900000000001           
         C46       1.0000    0.35720   0.33021   0.35200   Biso      1.000     C          0.671125  
         C47       1.0000    0.46200   0.33872   0.70680   Biso      1.000     C          0.657982  
         C48       1.0000    0.52020   0.47895   0.06170   Biso      1.000     C          0.511917  
         C49       1.0000    0.04420   0.47999   0.96200   Biso      1.000     C          0.501948  
         C50       1.0000    0.95260   0.34885   0.02920   Biso      1.000     C          0.5174989999999999  
         C51       1.0000    0.93510   0.32319   0.88440   Biso      1.000     C          0.520891  
         C52       1.0000    0.72150   0.48878   0.51740   Biso      1.000     C          0.138553  
         C53       1.0000    0.61840   0.43977   0.51190   Biso      1.000     C          0.312119  
         C54       1.0000    0.91250   0.57990   0.55650   Biso      1.000     C          -0.133199           
         C55       1.0000    0.49900   0.37105   0.59010   Biso      1.000     C          0.022886  
         C56       1.0000    0.45500   0.36906   0.45070   Biso      1.000     C          0.006364  
         H1        1.0000    0.47277   0.92256   0.17882   Biso      1.000     H          0.325868  
         H2        1.0000    0.89227   0.57687   0.35401   Biso      1.000     H          0.12504500000000002           
         H3        1.0000    0.72747   0.49715   0.31908   Biso      1.000     H          0.146964  
         H4        1.0000    0.52723   0.07744   0.82118   Biso      1.000     H          0.325868  
         H5        1.0000    0.97602   0.61198   0.57268   Biso      1.000     H          0.129856  
         H6        1.0000    0.90732   0.56601   0.74895   Biso      1.000     H          0.098349  
         H7        1.0000    0.52723   0.42256   0.32118   Biso      1.000     H          0.325868  
         H8        1.0000    0.90732   0.93399   0.24895   Biso      1.000     H          0.098349  
         H9        1.0000    0.02398   0.38802   0.42732   Biso      1.000     H          0.129856  
         H10       1.0000    0.09268   0.06601   0.75105   Biso      1.000     H          0.098349  
         H11       1.0000    0.02398   0.11198   0.92732   Biso      1.000     H          0.129856  
         H12       1.0000    0.09268   0.43399   0.25105   Biso      1.000     H          0.098349  
         H13       1.0000    0.10773   0.07687   0.14599   Biso      1.000     H          0.12504400000000002           
         H14       1.0000    0.89227   0.92313   0.85401   Biso      1.000     H          0.12504400000000002           
         H15       1.0000    0.47277   0.57744   0.67882   Biso      1.000     H          0.325868  
         H16       1.0000    0.27253   0.50285   0.68092   Biso      1.000     H          0.146964  
         H17       1.0000    0.10773   0.42313   0.64599   Biso      1.000     H          0.12504500000000002           
         H18       1.0000    0.72747   0.00285   0.81908   Biso      1.000     H          0.146964  
         H19       1.0000    0.97602   0.88802   0.07268   Biso      1.000     H          0.129856  
         H20       1.0000    0.27253   0.99715   0.18092   Biso      1.000     H          0.146964  
         N1        1.0000    0.77500   0.99216   0.14610   Biso      1.000     N          -0.33402  
         N2        1.0000    0.22500   0.00784   0.85390   Biso      1.000     N          -0.33402  
         N3        1.0000    0.40050   0.58495   0.37390   Biso      1.000     N          -0.45317299999999994          
         N4        1.0000    0.53270   0.08667   0.90470   Biso      1.000     N          -0.253012           
         N5        1.0000    0.59950   0.41505   0.62610   Biso      1.000     N          -0.45317299999999994          
         N6        1.0000    0.53270   0.41333   0.40470   Biso      1.000     N          -0.253012           
         N7        1.0000    0.77500   0.50784   0.64610   Biso      1.000     N          -0.33402  
         N8        1.0000    0.46730   0.91333   0.09530   Biso      1.000     N          -0.253012           
         N9        1.0000    0.40050   0.91505   0.87390   Biso      1.000     N          -0.45317299999999994          
         N10       1.0000    0.46730   0.58667   0.59530   Biso      1.000     N          -0.253012           
         N11       1.0000    0.22500   0.49216   0.35390   Biso      1.000     N          -0.334021           
         N12       1.0000    0.59950   0.08495   0.12610   Biso      1.000     N          -0.45317299999999994          
         O1        1.0000    0.03120   0.21312   0.36830   Biso      1.000     O          -0.6832520000000001           
         O2        1.0000    0.46900   0.00863   0.66340   Biso      1.000     O          -0.634653           
         O3        1.0000    0.60170   0.06354   0.55210   Biso      1.000     O          -0.568229           
         O4        1.0000    0.36630   0.16332   0.73100   Biso      1.000     O          -0.639904           
         O5        1.0000    0.06640   0.33749   0.11130   Biso      1.000     O          -0.642878           
         O6        1.0000    0.03120   0.28688   0.86830   Biso      1.000     O          -0.6832520000000001           
         O7        1.0000    0.82950   0.34106   0.79660   Biso      1.000     O          -0.5592159999999999           
         O8        1.0000    0.27560   0.20593   0.89280   Biso      1.000     O          -0.746007           
         O9        1.0000    0.82950   0.15894   0.29660   Biso      1.000     O          -0.5592159999999999           
         O10       1.0000    0.37940   0.20448   0.19350   Biso      1.000     O          -0.739096           
         O11       1.0000    0.52300   0.36048   0.82180   Biso      1.000     O          -0.614532           
         O12       1.0000    0.37940   0.29552   0.69350   Biso      1.000     O          -0.739096           
         O13       1.0000    0.27560   0.29407   0.39280   Biso      1.000     O          -0.746007           
         O14       1.0000    0.17850   0.01811   0.50200   Biso      1.000     O          -0.605808           
         O15       1.0000    0.52300   0.13952   0.32180   Biso      1.000     O          -0.614532           
         O16       1.0000    0.85070   0.11940   0.55040   Biso      1.000     O          -0.558926           
         O17       1.0000    0.06640   0.16251   0.61130   Biso      1.000     O          -0.642878           
         O18       1.0000    0.85070   0.38060   0.05040   Biso      1.000     O          -0.558926           
         O19       1.0000    0.97600   0.05199   0.36970   Biso      1.000     O          -0.6138319999999999           
         O20       1.0000    0.93360   0.83749   0.38870   Biso      1.000     O          -0.642878           
         O21       1.0000    0.93360   0.66251   0.88870   Biso      1.000     O          -0.642878           
         O22       1.0000    0.63370   0.83668   0.26900   Biso      1.000     O          -0.639904           
         O23       1.0000    0.39830   0.93646   0.44790   Biso      1.000     O          -0.568229           
         O24       1.0000    0.53100   0.99137   0.33660   Biso      1.000     O          -0.634653           
         O25       1.0000    0.02400   0.94801   0.63030   Biso      1.000     O          -0.6138319999999999           
         O26       1.0000    0.82150   0.98189   0.49800   Biso      1.000     O          -0.605808           
         O27       1.0000    0.47700   0.86048   0.67820   Biso      1.000     O          -0.614532           
         O28       1.0000    0.14930   0.88060   0.44960   Biso      1.000     O          -0.558926           
         O29       1.0000    0.17050   0.84106   0.70340   Biso      1.000     O          -0.5592159999999999           
         O30       1.0000    0.96880   0.78688   0.63170   Biso      1.000     O          -0.6832520000000001           
         O31       1.0000    0.36630   0.33668   0.23100   Biso      1.000     O          -0.639904           
         O32       1.0000    0.96880   0.71312   0.13170   Biso      1.000     O          -0.6832520000000001           
         O33       1.0000    0.17050   0.65894   0.20340   Biso      1.000     O          -0.5592159999999999           
         O34       1.0000    0.72440   0.79407   0.10720   Biso      1.000     O          -0.746007           
         O35       1.0000    0.14930   0.61940   0.94960   Biso      1.000     O          -0.558926           
         O36       1.0000    0.62060   0.70448   0.30650   Biso      1.000     O          -0.739096           
         O37       1.0000    0.72440   0.70593   0.60720   Biso      1.000     O          -0.746007           
         O38       1.0000    0.63370   0.66332   0.76900   Biso      1.000     O          -0.639904           
         O39       1.0000    0.39830   0.56354   0.94790   Biso      1.000     O          -0.568229           
         O40       1.0000    0.53100   0.50863   0.83660   Biso      1.000     O          -0.634653           
         O41       1.0000    0.02400   0.55199   0.13030   Biso      1.000     O          -0.6138319999999999           
         O42       1.0000    0.82150   0.51811   0.99800   Biso      1.000     O          -0.605808           
         O43       1.0000    0.17850   0.48189   0.00200   Biso      1.000     O          -0.605808           
         O44       1.0000    0.97600   0.44801   0.86970   Biso      1.000     O          -0.6138319999999999           
         O45       1.0000    0.46900   0.49137   0.16340   Biso      1.000     O          -0.634653           
         O46       1.0000    0.60170   0.43646   0.05210   Biso      1.000     O          -0.568229           
         O47       1.0000    0.47700   0.63952   0.17820   Biso      1.000     O          -0.614532           
         O48       1.0000    0.62060   0.79552   0.80650   Biso      1.000     O          -0.739096           
         Tb1       1.0000    0.24869   0.27656   0.04949   Biso      1.000     Tb          2.211353  
         Tb2       1.0000    0.71840   0.06566   0.35995   Biso      1.000     Tb          1.929552  
         Tb3       1.0000    0.28160   0.93434   0.64005   Biso      1.000     Tb          1.929552  
         Tb4       1.0000    0.28160   0.56566   0.14005   Biso      1.000     Tb          1.929552  
         Tb5       1.0000    0.75131   0.72344   0.95051   Biso      1.000     Tb          2.211353  
         Tb6       1.0000    0.24869   0.22344   0.54949   Biso      1.000     Tb          2.211353  
         Tb7       1.0000    0.75131   0.77656   0.45051   Biso      1.000     Tb          2.211353  
         Tb8       1.0000    0.71840   0.43434   0.85995   Biso      1.000     Tb          1.929552 