
##########################################################################
#               Crystallographic Information Format file
#               Produced by PyCifRW module
#
#  This is a CIF file.  CIF has been adopted by the International
#  Union of Crystallography as the standard for data archiving and
#  transmission.
#
#  For information on this file format, follow the CIF links at
#  http://www.iucr.org
##########################################################################

data_image0

_cell_length_a                          9.594
_cell_length_b                          22.789
_cell_length_c                          10.146
_cell_angle_alpha                       90
_cell_angle_beta                        101.32
_cell_angle_gamma                       90
_symmetry_space_group_name_H-M          'P 1'
_symmetry_int_tables_number             1
loop_
  _symmetry_equiv_pos_as_xyz
         'x, y, z' 
loop_
  _atom_site_label
  _atom_site_occupancy
  _atom_site_fract_x
  _atom_site_fract_y
  _atom_site_fract_z
  _atom_site_thermal_displace_type
  _atom_site_B_iso_or_equiv
  _atom_site_type_symbol
  _atom_site_charge
         C1        1.0000    0.05900   0.82542   0.62500   Biso      1.000     C          0.5134029999999999  
         C2        1.0000    0.23930   0.48533   0.60190   Biso      1.000     C          -0.14084100000000002          
         C3        1.0000    0.28050   0.51036   0.49020   Biso      1.000     C          0.138155  
         C4        1.0000    0.38250   0.55875   0.49630   Biso      1.000     C          0.312726  
         C5        1.0000    0.50170   0.62782   0.41970   Biso      1.000     C          0.020274  
         C6        1.0000    0.54290   0.62877   0.55800   Biso      1.000     C          0.013656999999999999          
         C7        1.0000    0.95420   0.15018   0.52040   Biso      1.000     C          0.5064310000000001  
         C8        1.0000    0.04580   0.84982   0.47960   Biso      1.000     C          0.5064310000000001  
         C9        1.0000    0.95480   0.97999   0.53830   Biso      1.000     C          0.49458500000000005           
         C10       1.0000    0.47980   0.97836   0.43950   Biso      1.000     C          0.505215  
         C11       1.0000    0.53830   0.83953   0.80370   Biso      1.000     C          0.645237  
         C12       1.0000    0.63680   0.83302   0.15820   Biso      1.000     C          0.653292  
         C13       1.0000    0.13590   0.05237   0.84420   Biso      1.000     C          0.119164  
         C14       1.0000    0.09230   0.08043   0.95100   Biso      1.000     C          -0.131268           
         C15       1.0000    0.14250   0.06132   0.08080   Biso      1.000     C          -0.021866           
         C16       1.0000    0.23930   0.01467   0.10190   Biso      1.000     C          -0.14084100000000002          
         C17       1.0000    0.28050   0.98964   0.99020   Biso      1.000     C          0.138155  
         C18       1.0000    0.38250   0.94125   0.99630   Biso      1.000     C          0.312726  
         C19       1.0000    0.14250   0.43868   0.58080   Biso      1.000     C          -0.021868000000000002         
         C20       1.0000    0.50170   0.87218   0.91970   Biso      1.000     C          0.020274  
         C21       1.0000    0.09230   0.41957   0.45100   Biso      1.000     C          -0.131267           
         C22       1.0000    0.63680   0.66698   0.65820   Biso      1.000     C          0.653292  
         C23       1.0000    0.04520   0.02001   0.46170   Biso      1.000     C          0.494584  
         C24       1.0000    0.52020   0.02164   0.56050   Biso      1.000     C          0.505215  
         C25       1.0000    0.46170   0.16047   0.19630   Biso      1.000     C          0.645237  
         C26       1.0000    0.36320   0.16698   0.84180   Biso      1.000     C          0.653292  
         C27       1.0000    0.86410   0.94763   0.15580   Biso      1.000     C          0.119164  
         C28       1.0000    0.90770   0.91957   0.04900   Biso      1.000     C          -0.131268           
         C29       1.0000    0.85750   0.93868   0.91920   Biso      1.000     C          -0.021866           
         C30       1.0000    0.76070   0.98533   0.89810   Biso      1.000     C          -0.14084100000000002          
         C31       1.0000    0.71950   0.01036   0.00980   Biso      1.000     C          0.138155  
         C32       1.0000    0.61750   0.05875   0.00370   Biso      1.000     C          0.312726  
         C33       1.0000    0.49830   0.12782   0.08030   Biso      1.000     C          0.020274  
         C34       1.0000    0.45710   0.12877   0.94200   Biso      1.000     C          0.013658000000000002          
         C35       1.0000    0.05900   0.67458   0.12500   Biso      1.000     C          0.5134029999999999  
         C36       1.0000    0.04580   0.65018   0.97960   Biso      1.000     C          0.5064310000000001  
         C37       1.0000    0.95480   0.52001   0.03830   Biso      1.000     C          0.49458500000000005           
         C38       1.0000    0.47980   0.52164   0.93950   Biso      1.000     C          0.505215  
         C39       1.0000    0.53830   0.66047   0.30370   Biso      1.000     C          0.645237  
         C40       1.0000    0.13590   0.44763   0.34420   Biso      1.000     C          0.119164  
         C41       1.0000    0.54290   0.87123   0.05800   Biso      1.000     C          0.013656999999999999          
         C42       1.0000    0.94100   0.17458   0.37500   Biso      1.000     C          0.5134029999999999  
         C43       1.0000    0.85750   0.56132   0.41920   Biso      1.000     C          -0.021868000000000002         
         C44       1.0000    0.76070   0.51467   0.39810   Biso      1.000     C          -0.14084000000000002          
         C45       1.0000    0.71950   0.48964   0.50980   Biso      1.000     C          0.138155  
         C46       1.0000    0.61750   0.44125   0.50370   Biso      1.000     C          0.312726  
         C47       1.0000    0.49830   0.37218   0.58030   Biso      1.000     C          0.020274  
         C48       1.0000    0.45710   0.37123   0.44200   Biso      1.000     C          0.013656999999999999          
         C49       1.0000    0.86410   0.55237   0.65580   Biso      1.000     C          0.119164  
         C50       1.0000    0.36320   0.33302   0.34180   Biso      1.000     C          0.653292  
         C51       1.0000    0.46170   0.33953   0.69630   Biso      1.000     C          0.645237  
         C52       1.0000    0.04520   0.47999   0.96170   Biso      1.000     C          0.494584  
         C53       1.0000    0.95420   0.34982   0.02040   Biso      1.000     C          0.5064310000000001  
         C54       1.0000    0.94100   0.32542   0.87500   Biso      1.000     C          0.513402  
         C55       1.0000    0.52020   0.47836   0.06050   Biso      1.000     C          0.505215  
         C56       1.0000    0.90770   0.58043   0.54900   Biso      1.000     C          -0.13126600000000002          
         H1        1.0000    0.48020   0.57250   0.68660   Biso      1.000     H          0.324247  
         H2        1.0000    0.51980   0.42750   0.31340   Biso      1.000     H          0.324247  
         H3        1.0000    0.02820   0.38740   0.43470   Biso      1.000     H          0.12962200000000001           
         H4        1.0000    0.48020   0.92750   0.18660   Biso      1.000     H          0.324247  
         H5        1.0000    0.97180   0.61260   0.56530   Biso      1.000     H          0.12962200000000001           
         H6        1.0000    0.11190   0.42050   0.65450   Biso      1.000     H          0.12628699999999998           
         H7        1.0000    0.90080   0.56560   0.74460   Biso      1.000     H          0.102594  
         H8        1.0000    0.97180   0.88740   0.06530   Biso      1.000     H          0.12962200000000001           
         H9        1.0000    0.88810   0.92050   0.84550   Biso      1.000     H          0.12628699999999998           
         H10       1.0000    0.09920   0.43440   0.25540   Biso      1.000     H          0.102594  
         H11       1.0000    0.88810   0.57950   0.34550   Biso      1.000     H          0.12628699999999998           
         H12       1.0000    0.72410   0.99950   0.81010   Biso      1.000     H          0.146213  
         H13       1.0000    0.02820   0.11260   0.93470   Biso      1.000     H          0.12962200000000001           
         H14       1.0000    0.11190   0.07950   0.15450   Biso      1.000     H          0.12628699999999998           
         H15       1.0000    0.51980   0.07250   0.81340   Biso      1.000     H          0.324247  
         H16       1.0000    0.27590   0.00050   0.18990   Biso      1.000     H          0.146213  
         H17       1.0000    0.27590   0.49950   0.68990   Biso      1.000     H          0.146213  
         H18       1.0000    0.72410   0.50050   0.31010   Biso      1.000     H          0.146213  
         H19       1.0000    0.09920   0.06560   0.75540   Biso      1.000     H          0.102594  
         H20       1.0000    0.90080   0.93440   0.24460   Biso      1.000     H          0.102594  
         N1        1.0000    0.59760   0.41577   0.61560   Biso      1.000     N          -0.44892200000000004          
         N2        1.0000    0.53390   0.41565   0.39530   Biso      1.000     N          -0.263759           
         N3        1.0000    0.22800   0.00723   0.86160   Biso      1.000     N          -0.345625           
         N4        1.0000    0.46610   0.91565   0.10470   Biso      1.000     N          -0.263759           
         N5        1.0000    0.46610   0.58435   0.60470   Biso      1.000     N          -0.263759           
         N6        1.0000    0.40240   0.58423   0.38440   Biso      1.000     N          -0.44892200000000004          
         N7        1.0000    0.77200   0.50723   0.63840   Biso      1.000     N          -0.345625           
         N8        1.0000    0.77200   0.99277   0.13840   Biso      1.000     N          -0.345625           
         N9        1.0000    0.59760   0.08423   0.11560   Biso      1.000     N          -0.44892200000000004          
         N10       1.0000    0.53390   0.08435   0.89530   Biso      1.000     N          -0.263759           
         N11       1.0000    0.40240   0.91577   0.88440   Biso      1.000     N          -0.44892200000000004          
         N12       1.0000    0.22800   0.49277   0.36160   Biso      1.000     N          -0.345625           
         Nd1       1.0000    0.25464   0.22203   0.53910   Biso      1.000     Nd          2.214843  
         Nd2       1.0000    0.71997   0.43537   0.85184   Biso      1.000     Nd          1.9433040000000001  
         Nd3       1.0000    0.71997   0.06463   0.35184   Biso      1.000     Nd          1.9433029999999998  
         Nd4       1.0000    0.25464   0.27797   0.03910   Biso      1.000     Nd          2.214842  
         Nd5       1.0000    0.28003   0.93537   0.64816   Biso      1.000     Nd          1.9433040000000001  
         Nd6       1.0000    0.74536   0.77797   0.46090   Biso      1.000     Nd          2.214842  
         Nd7       1.0000    0.74536   0.72203   0.96090   Biso      1.000     Nd          2.214843  
         Nd8       1.0000    0.28003   0.56463   0.14816   Biso      1.000     Nd          1.9433029999999998  
         O1        1.0000    0.01990   0.54933   0.13420   Biso      1.000     O          -0.60497  
         O2        1.0000    0.59800   0.06391   0.54510   Biso      1.000     O          -0.566167           
         O3        1.0000    0.47090   0.01008   0.66420   Biso      1.000     O          -0.625062           
         O4        1.0000    0.98010   0.04933   0.36580   Biso      1.000     O          -0.60497  
         O5        1.0000    0.17820   0.01985   0.50660   Biso      1.000     O          -0.609927           
         O6        1.0000    0.28220   0.29621   0.38150   Biso      1.000     O          -0.743164           
         O7        1.0000    0.37880   0.29698   0.68330   Biso      1.000     O          -0.735208           
         O8        1.0000    0.52230   0.36028   0.81170   Biso      1.000     O          -0.617566           
         O9        1.0000    0.37400   0.15962   0.72160   Biso      1.000     O          -0.62579  
         O10       1.0000    0.84950   0.37893   0.04370   Biso      1.000     O          -0.556647           
         O11       1.0000    0.52910   0.98992   0.33580   Biso      1.000     O          -0.625062           
         O12       1.0000    0.03830   0.29070   0.85670   Biso      1.000     O          -0.676455           
         O13       1.0000    0.40200   0.93609   0.45490   Biso      1.000     O          -0.566167           
         O14       1.0000    0.06800   0.34014   0.10130   Biso      1.000     O          -0.6343340000000001           
         O15       1.0000    0.62600   0.84038   0.27840   Biso      1.000     O          -0.62579  
         O16       1.0000    0.71780   0.79621   0.11850   Biso      1.000     O          -0.743164           
         O17       1.0000    0.62120   0.79698   0.81670   Biso      1.000     O          -0.735208           
         O18       1.0000    0.47770   0.86028   0.68830   Biso      1.000     O          -0.617566           
         O19       1.0000    0.15050   0.87893   0.45630   Biso      1.000     O          -0.556647           
         O20       1.0000    0.16300   0.84288   0.71290   Biso      1.000     O          -0.5616770000000001           
         O21       1.0000    0.96170   0.79070   0.64330   Biso      1.000     O          -0.676455           
         O22       1.0000    0.83700   0.34288   0.78710   Biso      1.000     O          -0.5616770000000001           
         O23       1.0000    0.28220   0.20379   0.88150   Biso      1.000     O          -0.743164           
         O24       1.0000    0.84950   0.12107   0.54370   Biso      1.000     O          -0.556647           
         O25       1.0000    0.52230   0.13972   0.31170   Biso      1.000     O          -0.617566           
         O26       1.0000    0.52910   0.51008   0.83580   Biso      1.000     O          -0.625062           
         O27       1.0000    0.40200   0.56391   0.95490   Biso      1.000     O          -0.566167           
         O28       1.0000    0.62600   0.65962   0.77840   Biso      1.000     O          -0.62579  
         O29       1.0000    0.71780   0.70379   0.61850   Biso      1.000     O          -0.743164           
         O30       1.0000    0.62120   0.70302   0.31670   Biso      1.000     O          -0.735208           
         O31       1.0000    0.47770   0.63972   0.18830   Biso      1.000     O          -0.617566           
         O32       1.0000    0.15050   0.62107   0.95630   Biso      1.000     O          -0.556647           
         O33       1.0000    0.16300   0.65712   0.21290   Biso      1.000     O          -0.5616770000000001           
         O34       1.0000    0.96170   0.70930   0.14330   Biso      1.000     O          -0.676455           
         O35       1.0000    0.93200   0.65986   0.89870   Biso      1.000     O          -0.6343340000000001           
         O36       1.0000    0.17820   0.48015   0.00660   Biso      1.000     O          -0.609927           
         O37       1.0000    0.98010   0.45067   0.86580   Biso      1.000     O          -0.60497  
         O38       1.0000    0.47090   0.48992   0.16420   Biso      1.000     O          -0.625062           
         O39       1.0000    0.59800   0.43609   0.04510   Biso      1.000     O          -0.566167           
         O40       1.0000    0.37400   0.34038   0.22160   Biso      1.000     O          -0.62579  
         O41       1.0000    0.82180   0.98015   0.49340   Biso      1.000     O          -0.609927           
         O42       1.0000    0.01990   0.95067   0.63420   Biso      1.000     O          -0.60497  
         O43       1.0000    0.06800   0.15986   0.60130   Biso      1.000     O          -0.6343340000000001           
         O44       1.0000    0.03830   0.20930   0.35670   Biso      1.000     O          -0.676455           
         O45       1.0000    0.83700   0.15712   0.28710   Biso      1.000     O          -0.5616770000000001           
         O46       1.0000    0.82180   0.51985   0.99340   Biso      1.000     O          -0.609927           
         O47       1.0000    0.37880   0.20302   0.18330   Biso      1.000     O          -0.735208           
         O48       1.0000    0.93200   0.84014   0.39870   Biso      1.000     O          -0.6343340000000001 