
##########################################################################
#               Crystallographic Information Format file
#               Produced by PyCifRW module
#
#  This is a CIF file.  CIF has been adopted by the International
#  Union of Crystallography as the standard for data archiving and
#  transmission.
#
#  For information on this file format, follow the CIF links at
#  http://www.iucr.org
##########################################################################

data_image0

_cell_length_a                          10.179
_cell_length_b                          10.9184
_cell_length_c                          13.8704
_cell_angle_alpha                       78.682
_cell_angle_beta                        79.271
_cell_angle_gamma                       86.079
_symmetry_space_group_name_H-M          'P 1'
_symmetry_int_tables_number             1
loop_
  _symmetry_equiv_pos_as_xyz
         'x, y, z' 
loop_
  _atom_site_label
  _atom_site_occupancy
  _atom_site_fract_x
  _atom_site_fract_y
  _atom_site_fract_z
  _atom_site_thermal_displace_type
  _atom_site_B_iso_or_equiv
  _atom_site_type_symbol
  _atom_site_charge
         C1        1.0000    0.65210   0.26890   0.19900   Biso      1.000     C          -0.17886400000000002          
         C2        1.0000    0.64080   0.38550   0.35720   Biso      1.000     C          0.070983  
         C3        1.0000    0.64630   0.20450   0.29770   Biso      1.000     C          0.085145  
         C4        1.0000    0.65180   0.39770   0.18120   Biso      1.000     C          1e-06     
         C5        1.0000    0.66660   0.48090   0.07930   Biso      1.000     C          0.49570200000000003           
         C6        1.0000    0.68720   0.81070   0.74750   Biso      1.000     C          0.549545  
         C7        1.0000    0.40490   0.09910   0.78580   Biso      1.000     C          0.542359  
         C8        1.0000    0.26200   0.11450   0.83310   Biso      1.000     C          -0.005817           
         C9        1.0000    0.15640   0.10410   0.78570   Biso      1.000     C          -0.143046           
         C10       1.0000    0.02730   0.11900   0.83220   Biso      1.000     C          -0.013737000000000001         
         C11       1.0000    0.99960   0.14550   0.92800   Biso      1.000     C          -0.196719           
         C12       1.0000    0.10610   0.16080   0.97480   Biso      1.000     C          0.26461999999999997           
         C13       1.0000    0.64530   0.45670   0.26340   Biso      1.000     C          -0.160672           
         C14       1.0000    0.23570   0.14170   0.92940   Biso      1.000     C          -0.16386900000000001          
         C15       1.0000    0.99610   0.29390   0.08890   Biso      1.000     C          0.491489  
         C16       1.0000    0.99120   0.33390   0.18660   Biso      1.000     C          0.036976  
         C17       1.0000    0.98510   0.25240   0.27770   Biso      1.000     C          -0.150918           
         C18       1.0000    0.97470   0.30240   0.36400   Biso      1.000     C          0.105871  
         C19       1.0000    0.98400   0.50330   0.27430   Biso      1.000     C          0.085576  
         C20       1.0000    0.98910   0.46190   0.18470   Biso      1.000     C          -0.12222100000000001          
         C21       1.0000    0.72810   0.39490   0.64700   Biso      1.000     C          0.637208  
         C22       1.0000    0.70000   0.47190   0.72690   Biso      1.000     C          -0.02161  
         C23       1.0000    0.67700   0.41720   0.82820   Biso      1.000     C          -0.196569           
         C24       1.0000    0.66360   0.48940   0.90150   Biso      1.000     C          0.279366  
         C25       1.0000    0.66430   0.61870   0.87420   Biso      1.000     C          -0.22143600000000002          
         C26       1.0000    0.90790   0.10680   0.78440   Biso      1.000     C          0.54567   
         C27       1.0000    0.59510   0.90090   0.21420   Biso      1.000     C          0.542342  
         C28       1.0000    0.73800   0.88550   0.16690   Biso      1.000     C          -0.005807           
         C29       1.0000    0.84360   0.89590   0.21430   Biso      1.000     C          -0.143051           
         C30       1.0000    0.35470   0.54330   0.73660   Biso      1.000     C          -0.160675           
         C31       1.0000    0.35920   0.61450   0.64280   Biso      1.000     C          0.070984  
         C32       1.0000    0.35370   0.79550   0.70230   Biso      1.000     C          0.085141  
         C33       1.0000    0.34790   0.73110   0.80100   Biso      1.000     C          -0.178862           
         C34       1.0000    0.34820   0.60230   0.81880   Biso      1.000     C          1e-06     
         C35       1.0000    0.33340   0.51910   0.92070   Biso      1.000     C          0.495704  
         C36       1.0000    0.31280   0.18930   0.25250   Biso      1.000     C          0.549558  
         C37       1.0000    0.29870   0.39860   0.29980   Biso      1.000     C          -0.152087           
         C38       1.0000    0.31690   0.32530   0.22740   Biso      1.000     C          -0.005455           
         C39       1.0000    0.33570   0.38130   0.12580   Biso      1.000     C          -0.22144699999999998          
         C40       1.0000    0.33640   0.51060   0.09850   Biso      1.000     C          0.279371  
         C41       1.0000    0.32300   0.58280   0.17180   Biso      1.000     C          -0.196562           
         C42       1.0000    0.30000   0.52810   0.27310   Biso      1.000     C          -0.021602           
         C43       1.0000    0.27190   0.60510   0.35300   Biso      1.000     C          0.63721   
         C44       1.0000    0.01090   0.53810   0.81530   Biso      1.000     C          -0.122224           
         C45       1.0000    0.01600   0.49670   0.72570   Biso      1.000     C          0.08557999999999999           
         C46       1.0000    0.02530   0.69760   0.63600   Biso      1.000     C          0.10587   
         C47       1.0000    0.01490   0.74760   0.72230   Biso      1.000     C          -0.150918           
         C48       1.0000    0.00880   0.66610   0.81340   Biso      1.000     C          0.036985000000000004          
         C49       1.0000    0.00390   0.70610   0.91110   Biso      1.000     C          0.491497  
         C50       1.0000    0.09210   0.89320   0.21560   Biso      1.000     C          0.545678  
         C51       1.0000    0.76430   0.85830   0.07060   Biso      1.000     C          -0.163876           
         C52       1.0000    0.89390   0.83920   0.02520   Biso      1.000     C          0.26463600000000004           
         C53       1.0000    0.00040   0.85450   0.07200   Biso      1.000     C          -0.196717           
         C54       1.0000    0.97270   0.88100   0.16780   Biso      1.000     C          -0.013746000000000001         
         C55       1.0000    0.68310   0.67470   0.77260   Biso      1.000     C          -0.005456           
         C56       1.0000    0.70130   0.60140   0.70020   Biso      1.000     C          -0.152079           
         Eu1       1.0000    0.68011   0.07666   0.70336   Biso      1.000     Eu          1.319145  
         Eu2       1.0000    0.31989   0.92334   0.29664   Biso      1.000     Eu          1.3191469999999998  
         H1        1.0000    0.87710   0.84180   0.88410   Biso      1.000     H          0.307082  
         H2        1.0000    0.63740   0.42590   0.41080   Biso      1.000     H          0.097207  
         H3        1.0000    0.64600   0.11770   0.30970   Biso      1.000     H          0.095976  
         H4        1.0000    0.65600   0.22580   0.14690   Biso      1.000     H          0.127384  
         H5        1.0000    0.71440   0.63910   0.63310   Biso      1.000     H          0.121735  
         H6        1.0000    0.65230   0.66810   0.92290   Biso      1.000     H          0.135295  
         H7        1.0000    0.67040   0.33090   0.84670   Biso      1.000     H          0.145591  
         H8        1.0000    0.99090   0.51870   0.12500   Biso      1.000     H          0.140746  
         H9        1.0000    0.98510   0.58880   0.27260   Biso      1.000     H          0.09624500000000001           
         H10       1.0000    0.96530   0.24790   0.42530   Biso      1.000     H          0.10625599999999999           
         H11       1.0000    0.98790   0.16640   0.28100   Biso      1.000     H          0.139529  
         H12       1.0000    0.30590   0.14690   0.96270   Biso      1.000     H          0.146926  
         H13       1.0000    0.38080   0.64640   0.98310   Biso      1.000     H          0.311766  
         H14       1.0000    0.17340   0.08680   0.72150   Biso      1.000     H          0.124048  
         H15       1.0000    0.64400   0.54340   0.25440   Biso      1.000     H          0.131089  
         H16       1.0000    0.12290   0.15820   0.11590   Biso      1.000     H          0.307076  
         H17       1.0000    0.91170   0.15290   0.96050   Biso      1.000     H          0.137812  
         H18       1.0000    0.82660   0.91320   0.27850   Biso      1.000     H          0.12405899999999999           
         H19       1.0000    0.35600   0.45660   0.74560   Biso      1.000     H          0.13109   
         H20       1.0000    0.36260   0.57410   0.58920   Biso      1.000     H          0.09721   
         H21       1.0000    0.35400   0.88230   0.69030   Biso      1.000     H          0.095981  
         H22       1.0000    0.34400   0.77420   0.85310   Biso      1.000     H          0.127386  
         H23       1.0000    0.61920   0.35360   0.01690   Biso      1.000     H          0.311766  
         H24       1.0000    0.34770   0.33190   0.07710   Biso      1.000     H          0.135292  
         H25       1.0000    0.28560   0.36090   0.36690   Biso      1.000     H          0.121734  
         H26       1.0000    0.00910   0.48130   0.87500   Biso      1.000     H          0.140748  
         H27       1.0000    0.01490   0.41120   0.72740   Biso      1.000     H          0.096247  
         H28       1.0000    0.03470   0.75210   0.57470   Biso      1.000     H          0.10625899999999999           
         H29       1.0000    0.01210   0.83360   0.71900   Biso      1.000     H          0.139535  
         H30       1.0000    0.69410   0.85310   0.03730   Biso      1.000     H          0.14693   
         H31       1.0000    0.08830   0.84710   0.03950   Biso      1.000     H          0.13781500000000002           
         H32       1.0000    0.32960   0.66910   0.15330   Biso      1.000     H          0.145591  
         Mn1       1.0000    0.00000   0.50000   0.50000   Biso      1.000     Mn          1.045714  
         N1        1.0000    0.35880   0.73870   0.62530   Biso      1.000     N          -0.236881           
         N2        1.0000    0.35440   0.57080   0.99720   Biso      1.000     N          -0.41553500000000004          
         N3        1.0000    0.91810   0.80210   0.93030   Biso      1.000     N          -0.410146           
         N4        1.0000    0.02230   0.57440   0.63730   Biso      1.000     N          -0.276015           
         N5        1.0000    0.64560   0.42920   0.00280   Biso      1.000     N          -0.41553500000000004          
         N6        1.0000    0.97770   0.42560   0.36270   Biso      1.000     N          -0.276014           
         N7        1.0000    0.08190   0.19790   0.06970   Biso      1.000     N          -0.410109           
         N8        1.0000    0.64120   0.26130   0.37470   Biso      1.000     N          -0.236889           
         O1        1.0000    0.32590   0.13070   0.33900   Biso      1.000     O          -0.5451729999999999           
         O2        1.0000    0.19940   0.56260   0.43340   Biso      1.000     O          -0.587337           
         O3        1.0000    0.32140   0.71210   0.33350   Biso      1.000     O          -0.5849489999999999           
         O4        1.0000    0.07620   0.65270   0.96860   Biso      1.000     O          -0.458966           
         O5        1.0000    0.20550   0.88870   0.16630   Biso      1.000     O          -0.53681  
         O6        1.0000    0.07250   0.90520   0.30790   Biso      1.000     O          -0.60511  
         O7        1.0000    0.50550   0.91400   0.16210   Biso      1.000     O          -0.497763           
         O8        1.0000    0.56210   0.90120   0.30800   Biso      1.000     O          -0.516325           
         O9        1.0000    0.69420   0.58830   0.07130   Biso      1.000     O          -0.446557           
         O10       1.0000    0.67410   0.86930   0.66100   Biso      1.000     O          -0.5451699999999999           
         O11       1.0000    0.80060   0.43740   0.56660   Biso      1.000     O          -0.587333           
         O12       1.0000    0.67860   0.28790   0.66650   Biso      1.000     O          -0.584939           
         O13       1.0000    0.92380   0.34730   0.03140   Biso      1.000     O          -0.45895  
         O14       1.0000    0.79450   0.11130   0.83370   Biso      1.000     O          -0.5368149999999999           
         O15       1.0000    0.92750   0.09480   0.69210   Biso      1.000     O          -0.6051310000000001           
         O16       1.0000    0.49450   0.08600   0.83790   Biso      1.000     O          -0.49773199999999995          
         O17       1.0000    0.43790   0.09880   0.69200   Biso      1.000     O          -0.516342           
         O18       1.0000    0.29580   0.12630   0.18910   Biso      1.000     O          -0.546666           
         O19       1.0000    0.70420   0.87370   0.81090   Biso      1.000     O          -0.5466850000000001           
         O20       1.0000    0.30580   0.41170   0.92870   Biso      1.000     O          -0.446562 