
##########################################################################
#               Crystallographic Information Format file
#               Produced by PyCifRW module
#
#  This is a CIF file.  CIF has been adopted by the International
#  Union of Crystallography as the standard for data archiving and
#  transmission.
#
#  For information on this file format, follow the CIF links at
#  http://www.iucr.org
##########################################################################

data_image0

_cell_length_a                          10.148
_cell_length_b                          10.8845
_cell_length_c                          13.8261
_cell_angle_alpha                       78.76
_cell_angle_beta                        79.305
_cell_angle_gamma                       86.222
_symmetry_space_group_name_H-M          'P 1'
_symmetry_int_tables_number             1
loop_
  _symmetry_equiv_pos_as_xyz
         'x, y, z' 
loop_
  _atom_site_label
  _atom_site_occupancy
  _atom_site_fract_x
  _atom_site_fract_y
  _atom_site_fract_z
  _atom_site_thermal_displace_type
  _atom_site_B_iso_or_equiv
  _atom_site_type_symbol
  _atom_site_charge
         C1        1.0000    0.98850   0.46180   0.68600   Biso      1.000     C          -0.123761           
         C2        1.0000    0.97660   0.30280   0.86270   Biso      1.000     C          0.106464  
         C3        1.0000    0.98310   0.50200   0.77420   Biso      1.000     C          0.087867  
         C4        1.0000    0.99190   0.33490   0.68660   Biso      1.000     C          0.046957  
         C5        1.0000    0.99590   0.29260   0.58930   Biso      1.000     C          0.487411  
         C6        1.0000    0.90850   0.10630   0.28390   Biso      1.000     C          0.576465  
         C7        1.0000    0.68610   0.81340   0.24720   Biso      1.000     C          0.584175  
         C8        1.0000    0.68340   0.67450   0.27320   Biso      1.000     C          4.1e-05   
         C9        1.0000    0.66460   0.61920   0.37380   Biso      1.000     C          -0.21837199999999998          
         C10       1.0000    0.66310   0.49000   0.40180   Biso      1.000     C          0.28133   
         C11       1.0000    0.67720   0.41720   0.32870   Biso      1.000     C          -0.200241           
         C12       1.0000    0.69930   0.47220   0.22760   Biso      1.000     C          -0.027014999999999997         
         C13       1.0000    0.98540   0.25350   0.77700   Biso      1.000     C          -0.16135  
         C14       1.0000    0.70180   0.60200   0.20020   Biso      1.000     C          -0.15609800000000001          
         C15       1.0000    0.66680   0.48110   0.57990   Biso      1.000     C          0.496435  
         C16       1.0000    0.65300   0.39890   0.68200   Biso      1.000     C          0.004511  
         C17       1.0000    0.64540   0.45730   0.76310   Biso      1.000     C          -0.16108599999999998          
         C18       1.0000    0.63940   0.38650   0.85740   Biso      1.000     C          0.07318   
         C19       1.0000    0.64700   0.20560   0.79760   Biso      1.000     C          0.08822   
         C20       1.0000    0.65210   0.26910   0.70130   Biso      1.000     C          -0.184867           
         C21       1.0000    0.40550   0.09770   0.28480   Biso      1.000     C          0.5879270000000001  
         C22       1.0000    0.26230   0.11340   0.33210   Biso      1.000     C          -0.000389           
         C23       1.0000    0.15790   0.10280   0.28400   Biso      1.000     C          -0.147274           
         C24       1.0000    0.02620   0.11800   0.33250   Biso      1.000     C          -0.018335           
         C25       1.0000    0.00100   0.14780   0.42690   Biso      1.000     C          -0.192222           
         C26       1.0000    0.72900   0.39450   0.14820   Biso      1.000     C          0.6709970000000001  
         C27       1.0000    0.31390   0.18660   0.75280   Biso      1.000     C          0.584175  
         C28       1.0000    0.31660   0.32550   0.72680   Biso      1.000     C          4.1e-05   
         C29       1.0000    0.33540   0.38080   0.62620   Biso      1.000     C          -0.21837199999999998          
         C30       1.0000    0.01460   0.74650   0.22300   Biso      1.000     C          -0.161355           
         C31       1.0000    0.02340   0.69720   0.13730   Biso      1.000     C          0.106467  
         C32       1.0000    0.01690   0.49800   0.22580   Biso      1.000     C          0.087858  
         C33       1.0000    0.01150   0.53820   0.31400   Biso      1.000     C          -0.123752           
         C34       1.0000    0.00810   0.66510   0.31340   Biso      1.000     C          0.046959  
         C35       1.0000    0.00410   0.70740   0.41070   Biso      1.000     C          0.48741   
         C36       1.0000    0.09150   0.89370   0.71610   Biso      1.000     C          0.576465  
         C37       1.0000    0.76400   0.85780   0.57160   Biso      1.000     C          -0.159106           
         C38       1.0000    0.89400   0.83860   0.52570   Biso      1.000     C          0.262309  
         C39       1.0000    0.99900   0.85220   0.57310   Biso      1.000     C          -0.19222  
         C40       1.0000    0.97380   0.88200   0.66750   Biso      1.000     C          -0.018335           
         C41       1.0000    0.84210   0.89720   0.71600   Biso      1.000     C          -0.147277           
         C42       1.0000    0.73770   0.88660   0.66790   Biso      1.000     C          -0.000386           
         C43       1.0000    0.59450   0.90230   0.71520   Biso      1.000     C          0.5879270000000001  
         C44       1.0000    0.34790   0.73090   0.29870   Biso      1.000     C          -0.18487  
         C45       1.0000    0.35300   0.79440   0.20240   Biso      1.000     C          0.088224  
         C46       1.0000    0.36060   0.61350   0.14260   Biso      1.000     C          0.07317699999999999           
         C47       1.0000    0.35460   0.54270   0.23690   Biso      1.000     C          -0.161083           
         C48       1.0000    0.34700   0.60110   0.31800   Biso      1.000     C          0.0045119999999999995         
         C49       1.0000    0.33320   0.51890   0.42010   Biso      1.000     C          0.496435  
         C50       1.0000    0.27100   0.60550   0.85180   Biso      1.000     C          0.6709970000000001  
         C51       1.0000    0.29820   0.39800   0.79980   Biso      1.000     C          -0.15609800000000001          
         C52       1.0000    0.30070   0.52780   0.77240   Biso      1.000     C          -0.027014           
         C53       1.0000    0.32280   0.58280   0.67130   Biso      1.000     C          -0.200244           
         C54       1.0000    0.33690   0.51000   0.59820   Biso      1.000     C          0.281333  
         C55       1.0000    0.10600   0.16140   0.47430   Biso      1.000     C          0.262309  
         C56       1.0000    0.23600   0.14220   0.42840   Biso      1.000     C          -0.159103           
         Gd1       1.0000    0.67955   0.07683   0.20374   Biso      1.000     Gd          1.96975   
         Gd2       1.0000    0.32045   0.92317   0.79626   Biso      1.000     Gd          1.96975   
         H1        1.0000    0.37900   0.64620   0.48300   Biso      1.000     H          0.30962399999999995           
         H2        1.0000    0.96910   0.24760   0.92390   Biso      1.000     H          0.09599099999999999           
         H3        1.0000    0.98280   0.58780   0.77260   Biso      1.000     H          0.090305  
         H4        1.0000    0.98990   0.51920   0.62640   Biso      1.000     H          0.1404    
         H5        1.0000    0.30660   0.14850   0.46140   Biso      1.000     H          0.149019  
         H6        1.0000    0.91310   0.15880   0.45860   Biso      1.000     H          0.137455  
         H7        1.0000    0.17490   0.08560   0.21940   Biso      1.000     H          0.130848  
         H8        1.0000    0.65490   0.22560   0.64930   Biso      1.000     H          0.12528399999999998           
         H9        1.0000    0.64810   0.11850   0.80900   Biso      1.000     H          0.091145  
         H10       1.0000    0.63430   0.42750   0.91110   Biso      1.000     H          0.095487  
         H11       1.0000    0.64440   0.54430   0.75390   Biso      1.000     H          0.128436  
         H12       1.0000    0.71590   0.63970   0.13280   Biso      1.000     H          0.124332  
         H13       1.0000    0.87580   0.84160   0.38430   Biso      1.000     H          0.30597199999999997           
         H14       1.0000    0.65280   0.66890   0.42250   Biso      1.000     H          0.136426  
         H15       1.0000    0.98700   0.16730   0.78020   Biso      1.000     H          0.136648  
         H16       1.0000    0.62100   0.35380   0.51700   Biso      1.000     H          0.30962399999999995           
         H17       1.0000    0.67180   0.33060   0.34730   Biso      1.000     H          0.14366800000000002           
         H18       1.0000    0.34720   0.33110   0.57750   Biso      1.000     H          0.136426  
         H19       1.0000    0.01300   0.83270   0.21980   Biso      1.000     H          0.136648  
         H20       1.0000    0.03090   0.75240   0.07610   Biso      1.000     H          0.09598999999999999           
         H21       1.0000    0.01720   0.41220   0.22740   Biso      1.000     H          0.090306  
         H22       1.0000    0.01010   0.48080   0.37360   Biso      1.000     H          0.140399  
         H23       1.0000    0.12420   0.15840   0.61570   Biso      1.000     H          0.30597199999999997           
         H24       1.0000    0.08690   0.84120   0.54140   Biso      1.000     H          0.137455  
         H25       1.0000    0.69340   0.85150   0.53860   Biso      1.000     H          0.149019  
         H26       1.0000    0.34510   0.77440   0.35070   Biso      1.000     H          0.12528399999999998           
         H27       1.0000    0.35190   0.88150   0.19100   Biso      1.000     H          0.091145  
         H28       1.0000    0.36570   0.57250   0.08890   Biso      1.000     H          0.095487  
         H29       1.0000    0.35560   0.45570   0.24610   Biso      1.000     H          0.128436  
         H30       1.0000    0.28410   0.36030   0.86720   Biso      1.000     H          0.124332  
         H31       1.0000    0.32820   0.66940   0.65270   Biso      1.000     H          0.14366900000000002           
         H32       1.0000    0.82510   0.91440   0.78060   Biso      1.000     H          0.130848  
         Mn1       1.0000    0.00000   0.50000   0.00000   Biso      1.000     Mn          1.013126  
         N1        1.0000    0.02190   0.57500   0.13720   Biso      1.000     N          -0.28025900000000004          
         N2        1.0000    0.91770   0.80220   0.43040   Biso      1.000     N          -0.41417200000000004          
         N3        1.0000    0.35350   0.57000   0.49690   Biso      1.000     N          -0.420674           
         N4        1.0000    0.35940   0.73890   0.12430   Biso      1.000     N          -0.281569           
         N5        1.0000    0.08230   0.19780   0.56960   Biso      1.000     N          -0.41417200000000004          
         N6        1.0000    0.64060   0.26110   0.87570   Biso      1.000     N          -0.281569           
         N7        1.0000    0.64650   0.43000   0.50310   Biso      1.000     N          -0.42067299999999996          
         N8        1.0000    0.97810   0.42500   0.86280   Biso      1.000     N          -0.28025900000000004          
         O1        1.0000    0.07470   0.90680   0.80710   Biso      1.000     O          -0.685377           
         O2        1.0000    0.50400   0.91420   0.66270   Biso      1.000     O          -0.613067           
         O3        1.0000    0.56140   0.90260   0.80760   Biso      1.000     O          -0.649313           
         O4        1.0000    0.30560   0.41090   0.42900   Biso      1.000     O          -0.45783  
         O5        1.0000    0.32160   0.71240   0.83300   Biso      1.000     O          -0.684974           
         O6        1.0000    0.19950   0.56260   0.93310   Biso      1.000     O          -0.590486           
         O7        1.0000    0.29590   0.12510   0.68930   Biso      1.000     O          -0.624667           
         O8        1.0000    0.32710   0.13050   0.83890   Biso      1.000     O          -0.6486729999999999           
         O9        1.0000    0.92450   0.34750   0.53060   Biso      1.000     O          -0.471739           
         O10       1.0000    0.92530   0.09320   0.19290   Biso      1.000     O          -0.685377           
         O11       1.0000    0.49600   0.08580   0.33730   Biso      1.000     O          -0.613067           
         O12       1.0000    0.43860   0.09740   0.19240   Biso      1.000     O          -0.649313           
         O13       1.0000    0.69440   0.58910   0.57100   Biso      1.000     O          -0.45783  
         O14       1.0000    0.67840   0.28760   0.16700   Biso      1.000     O          -0.684974           
         O15       1.0000    0.80050   0.43740   0.06690   Biso      1.000     O          -0.590486           
         O16       1.0000    0.70410   0.87490   0.31070   Biso      1.000     O          -0.624667           
         O17       1.0000    0.67290   0.86950   0.16110   Biso      1.000     O          -0.6486729999999999           
         O18       1.0000    0.20790   0.88880   0.66630   Biso      1.000     O          -0.598729           
         O19       1.0000    0.79210   0.11120   0.33370   Biso      1.000     O          -0.598729           
         O20       1.0000    0.07550   0.65250   0.46940   Biso      1.000     O          -0.471739 