
##########################################################################
#               Crystallographic Information Format file
#               Produced by PyCifRW module
#
#  This is a CIF file.  CIF has been adopted by the International
#  Union of Crystallography as the standard for data archiving and
#  transmission.
#
#  For information on this file format, follow the CIF links at
#  http://www.iucr.org
##########################################################################

data_image0

_cell_length_a                          14.9436
_cell_length_b                          28.4461
_cell_length_c                          10.7407
_cell_angle_alpha                       90
_cell_angle_beta                        90
_cell_angle_gamma                       90
_symmetry_space_group_name_H-M          'P 1'
_symmetry_int_tables_number             1
loop_
  _symmetry_equiv_pos_as_xyz
         'x, y, z' 
loop_
  _atom_site_label
  _atom_site_occupancy
  _atom_site_fract_x
  _atom_site_fract_y
  _atom_site_fract_z
  _atom_site_thermal_displace_type
  _atom_site_B_iso_or_equiv
  _atom_site_type_symbol
  _atom_site_charge
         C1        1.0000    0.25000   0.29920   0.25000   Biso      1.000     C          -0.073632           
         C2        1.0000    0.36500   0.69830   0.58010   Biso      1.000     C          -0.4937   
         C3        1.0000    0.18850   0.62300   0.67780   Biso      1.000     C          -0.175187           
         C4        1.0000    0.30440   0.72500   0.66940   Biso      1.000     C          0.060154  
         C5        1.0000    0.11730   0.54740   0.60850   Biso      1.000     C          0.616874  
         C6        1.0000    0.18700   0.57450   0.67930   Biso      1.000     C          0.00191   
         C7        1.0000    0.68700   0.92550   0.82070   Biso      1.000     C          0.001909  
         C8        1.0000    0.61730   0.95260   0.89150   Biso      1.000     C          0.616874  
         C9        1.0000    0.80440   0.77500   0.83060   Biso      1.000     C          0.060153  
         C10       1.0000    0.13500   0.19830   0.08010   Biso      1.000     C          -0.493705           
         C11       1.0000    0.68850   0.87700   0.82220   Biso      1.000     C          -0.175185           
         C12       1.0000    0.31150   0.12300   0.17780   Biso      1.000     C          -0.175184           
         C13       1.0000    0.36500   0.30170   0.41990   Biso      1.000     C          -0.4937   
         C14       1.0000    0.19560   0.22500   0.16940   Biso      1.000     C          0.060151  
         C15       1.0000    0.31300   0.07450   0.17930   Biso      1.000     C          0.001908  
         C16       1.0000    0.86500   0.80170   0.91990   Biso      1.000     C          -0.493705           
         C17       1.0000    0.63500   0.69830   0.58010   Biso      1.000     C          -0.4937   
         C18       1.0000    0.81150   0.62300   0.67780   Biso      1.000     C          -0.175188           
         C19       1.0000    0.69560   0.72500   0.66940   Biso      1.000     C          0.060155  
         C20       1.0000    0.88270   0.54740   0.60850   Biso      1.000     C          0.616874  
         C21       1.0000    0.81300   0.57450   0.67930   Biso      1.000     C          0.00191   
         C22       1.0000    0.88270   0.04740   0.39150   Biso      1.000     C          0.616873  
         C23       1.0000    0.86500   0.30170   0.08010   Biso      1.000     C          -0.493702           
         C24       1.0000    0.68850   0.37700   0.17780   Biso      1.000     C          -0.175186           
         C25       1.0000    0.80440   0.27500   0.16940   Biso      1.000     C          0.060155  
         C26       1.0000    0.38270   0.04740   0.10850   Biso      1.000     C          0.616874  
         C27       1.0000    0.61730   0.45260   0.10850   Biso      1.000     C          0.616875  
         C28       1.0000    0.18850   0.37700   0.32220   Biso      1.000     C          -0.175188           
         C29       1.0000    0.11730   0.45260   0.39150   Biso      1.000     C          0.616873  
         C30       1.0000    0.69560   0.22500   0.33060   Biso      1.000     C          0.060152  
         C31       1.0000    0.81150   0.12300   0.32220   Biso      1.000     C          -0.175183           
         C32       1.0000    0.63500   0.19830   0.41990   Biso      1.000     C          -0.493702           
         C33       1.0000    0.13500   0.30170   0.08010   Biso      1.000     C          -0.493701           
         C34       1.0000    0.31150   0.37700   0.17780   Biso      1.000     C          -0.175186           
         C35       1.0000    0.19560   0.27500   0.16940   Biso      1.000     C          0.060154  
         C36       1.0000    0.38270   0.45260   0.10850   Biso      1.000     C          0.616874  
         C37       1.0000    0.31300   0.42550   0.17930   Biso      1.000     C          0.001909  
         C38       1.0000    0.31300   0.57450   0.82070   Biso      1.000     C          0.00191   
         C39       1.0000    0.38270   0.54740   0.89150   Biso      1.000     C          0.616874  
         C40       1.0000    0.19560   0.72500   0.83060   Biso      1.000     C          0.060154  
         C41       1.0000    0.30440   0.27500   0.33060   Biso      1.000     C          0.060154  
         C42       1.0000    0.63500   0.80170   0.58010   Biso      1.000     C          -0.493702           
         C43       1.0000    0.81150   0.87700   0.67780   Biso      1.000     C          -0.175183           
         C44       1.0000    0.69560   0.77500   0.66940   Biso      1.000     C          0.060151  
         C45       1.0000    0.88270   0.95260   0.60850   Biso      1.000     C          0.616873  
         C46       1.0000    0.81300   0.92550   0.67930   Biso      1.000     C          0.001909  
         C47       1.0000    0.13500   0.69830   0.91990   Biso      1.000     C          -0.493701           
         C48       1.0000    0.86500   0.19830   0.08010   Biso      1.000     C          -0.493705           
         C49       1.0000    0.18700   0.42550   0.32070   Biso      1.000     C          0.001909  
         C50       1.0000    0.68850   0.12300   0.17780   Biso      1.000     C          -0.175185           
         C51       1.0000    0.80440   0.22500   0.16940   Biso      1.000     C          0.060152  
         C52       1.0000    0.61730   0.04740   0.10850   Biso      1.000     C          0.616874  
         C53       1.0000    0.68700   0.07450   0.17930   Biso      1.000     C          0.001908  
         C54       1.0000    0.31150   0.62300   0.82220   Biso      1.000     C          -0.175186           
         C55       1.0000    0.68700   0.42550   0.17930   Biso      1.000     C          0.001911  
         C56       1.0000    0.81300   0.07450   0.32070   Biso      1.000     C          0.001909  
         C57       1.0000    0.36500   0.19830   0.41990   Biso      1.000     C          -0.493703           
         C58       1.0000    0.38270   0.95260   0.89150   Biso      1.000     C          0.616874  
         C59       1.0000    0.68850   0.62300   0.82220   Biso      1.000     C          -0.175186           
         C60       1.0000    0.80440   0.72500   0.83060   Biso      1.000     C          0.060154  
         C61       1.0000    0.61730   0.54740   0.89150   Biso      1.000     C          0.616875  
         C62       1.0000    0.68700   0.57450   0.82070   Biso      1.000     C          0.00191   
         C63       1.0000    0.25000   0.79920   0.75000   Biso      1.000     C          -0.073641           
         C64       1.0000    0.19560   0.77500   0.83060   Biso      1.000     C          0.060152  
         C65       1.0000    0.31150   0.87700   0.82220   Biso      1.000     C          -0.175185           
         C66       1.0000    0.75000   0.64820   0.75000   Biso      1.000     C          0.114124  
         C67       1.0000    0.86500   0.69830   0.91990   Biso      1.000     C          -0.4937   
         C68       1.0000    0.75000   0.55130   0.75000   Biso      1.000     C          -0.134065           
         C69       1.0000    0.75000   0.70080   0.75000   Biso      1.000     C          -0.073631           
         C70       1.0000    0.75000   0.94870   0.75000   Biso      1.000     C          -0.134066           
         C71       1.0000    0.75000   0.35180   0.25000   Biso      1.000     C          0.114124  
         C72       1.0000    0.25000   0.64820   0.75000   Biso      1.000     C          0.114125  
         C73       1.0000    0.75000   0.85180   0.75000   Biso      1.000     C          0.114136  
         C74       1.0000    0.18850   0.12300   0.32220   Biso      1.000     C          -0.175183           
         C75       1.0000    0.30440   0.22500   0.33060   Biso      1.000     C          0.06015   
         C76       1.0000    0.11730   0.04740   0.39150   Biso      1.000     C          0.616873  
         C77       1.0000    0.18700   0.07450   0.32070   Biso      1.000     C          0.001909  
         C78       1.0000    0.13500   0.80170   0.91990   Biso      1.000     C          -0.493705           
         C79       1.0000    0.25000   0.94870   0.75000   Biso      1.000     C          -0.134072           
         C80       1.0000    0.25000   0.85180   0.75000   Biso      1.000     C          0.114136  
         C81       1.0000    0.31300   0.92550   0.82070   Biso      1.000     C          0.001912  
         C82       1.0000    0.75000   0.44870   0.25000   Biso      1.000     C          -0.134068           
         C83       1.0000    0.25000   0.44870   0.25000   Biso      1.000     C          -0.134066           
         C84       1.0000    0.75000   0.29920   0.25000   Biso      1.000     C          -0.073631           
         C85       1.0000    0.36500   0.80170   0.58010   Biso      1.000     C          -0.493703           
         C86       1.0000    0.81300   0.42550   0.32070   Biso      1.000     C          0.001914  
         C87       1.0000    0.25000   0.14820   0.25000   Biso      1.000     C          0.114136  
         C88       1.0000    0.88270   0.45260   0.39150   Biso      1.000     C          0.616874  
         C89       1.0000    0.69560   0.27500   0.33060   Biso      1.000     C          0.060155  
         C90       1.0000    0.81150   0.37700   0.32220   Biso      1.000     C          -0.175188           
         C91       1.0000    0.25000   0.35180   0.25000   Biso      1.000     C          0.114125  
         C92       1.0000    0.18850   0.87700   0.67780   Biso      1.000     C          -0.175183           
         C93       1.0000    0.30440   0.77500   0.66940   Biso      1.000     C          0.060151  
         C94       1.0000    0.11730   0.95260   0.60850   Biso      1.000     C          0.616873  
         C95       1.0000    0.18700   0.92550   0.67930   Biso      1.000     C          0.001912  
         C96       1.0000    0.25000   0.05130   0.25000   Biso      1.000     C          -0.134065           
         C97       1.0000    0.63500   0.30170   0.41990   Biso      1.000     C          -0.4937   
         C98       1.0000    0.75000   0.20080   0.25000   Biso      1.000     C          -0.073641           
         C99       1.0000    0.75000   0.05130   0.25000   Biso      1.000     C          -0.134065           
         C100      1.0000    0.75000   0.14820   0.25000   Biso      1.000     C          0.114136  
         C101      1.0000    0.75000   0.79920   0.75000   Biso      1.000     C          -0.073641           
         C102      1.0000    0.25000   0.20080   0.25000   Biso      1.000     C          -0.073642           
         C103      1.0000    0.25000   0.55130   0.75000   Biso      1.000     C          -0.134064           
         C104      1.0000    0.25000   0.70080   0.75000   Biso      1.000     C          -0.073632           
         Cu1       1.0000    0.50000   0.03290   0.91107   Biso      1.000     Cu          0.889915  
         Cu2       1.0000    0.50000   0.96710   0.08893   Biso      1.000     Cu          0.889912  
         Cu3       1.0000    0.00000   0.53290   0.41107   Biso      1.000     Cu          0.889894  
         Cu4       1.0000    0.50000   0.46710   0.91107   Biso      1.000     Cu          0.889892  
         Cu5       1.0000    0.00000   0.96710   0.41107   Biso      1.000     Cu          0.889892  
         Cu6       1.0000    0.50000   0.53290   0.08893   Biso      1.000     Cu          0.889892  
         Cu7       1.0000    0.00000   0.03290   0.58893   Biso      1.000     Cu          0.889889  
         Cu8       1.0000    0.00000   0.46710   0.58893   Biso      1.000     Cu          0.889892  
         H1        1.0000    0.75000   0.48210   0.25000   Biso      1.000     H          0.128574  
         H2        1.0000    0.85280   0.13960   0.37310   Biso      1.000     H          0.139633  
         H3        1.0000    0.57790   0.19150   0.37880   Biso      1.000     H          0.156781  
         H4        1.0000    0.25000   0.01790   0.25000   Biso      1.000     H          0.128572  
         H5        1.0000    0.66380   0.16880   0.44410   Biso      1.000     H          0.157637  
         H6        1.0000    0.62430   0.21750   0.49420   Biso      1.000     H          0.154788  
         H7        1.0000    0.75000   0.01790   0.25000   Biso      1.000     H          0.128571  
         H8        1.0000    0.14720   0.36040   0.37310   Biso      1.000     H          0.139625  
         H9        1.0000    0.83620   0.83120   0.94410   Biso      1.000     H          0.157644  
         H10       1.0000    0.92210   0.80850   0.87880   Biso      1.000     H          0.156783  
         H11       1.0000    0.64720   0.86040   0.87310   Biso      1.000     H          0.13964   
         H12       1.0000    0.25000   0.98210   0.75000   Biso      1.000     H          0.128573  
         H13       1.0000    0.37570   0.28250   0.49420   Biso      1.000     H          0.154785  
         H14       1.0000    0.33620   0.33120   0.44410   Biso      1.000     H          0.157647  
         H15       1.0000    0.75000   0.98210   0.75000   Biso      1.000     H          0.128573  
         H16       1.0000    0.35280   0.63960   0.87310   Biso      1.000     H          0.139626  
         H17       1.0000    0.75000   0.51790   0.75000   Biso      1.000     H          0.128571  
         H18       1.0000    0.07790   0.69150   0.87880   Biso      1.000     H          0.156784  
         H19       1.0000    0.16380   0.66880   0.94410   Biso      1.000     H          0.157647  
         H20       1.0000    0.12430   0.71750   0.99420   Biso      1.000     H          0.154787  
         H21       1.0000    0.42210   0.30850   0.37880   Biso      1.000     H          0.156782  
         H22       1.0000    0.25000   0.51790   0.75000   Biso      1.000     H          0.128573  
         H23       1.0000    0.87570   0.78250   0.99420   Biso      1.000     H          0.154793  
         H24       1.0000    0.92210   0.19150   0.12120   Biso      1.000     H          0.156784  
         H25       1.0000    0.57790   0.69150   0.62120   Biso      1.000     H          0.156784  
         H26       1.0000    0.83620   0.66880   0.94410   Biso      1.000     H          0.157647  
         H27       1.0000    0.14720   0.13960   0.37310   Biso      1.000     H          0.139634  
         H28       1.0000    0.12430   0.21750   0.00580   Biso      1.000     H          0.154793  
         H29       1.0000    0.16380   0.16880   0.05590   Biso      1.000     H          0.157643  
         H30       1.0000    0.07790   0.19150   0.12120   Biso      1.000     H          0.156782  
         H31       1.0000    0.35280   0.13960   0.12690   Biso      1.000     H          0.13964   
         H32       1.0000    0.42210   0.19150   0.37880   Biso      1.000     H          0.15678   
         H33       1.0000    0.33620   0.16880   0.44410   Biso      1.000     H          0.157636  
         H34       1.0000    0.62430   0.71750   0.50580   Biso      1.000     H          0.154786  
         H35       1.0000    0.66380   0.66880   0.55590   Biso      1.000     H          0.157647  
         H36       1.0000    0.14720   0.63960   0.62690   Biso      1.000     H          0.139629  
         H37       1.0000    0.37570   0.21750   0.49420   Biso      1.000     H          0.154787  
         H38       1.0000    0.87570   0.28250   0.00580   Biso      1.000     H          0.15479   
         H39       1.0000    0.83620   0.33120   0.05590   Biso      1.000     H          0.15765   
         H40       1.0000    0.92210   0.30850   0.12120   Biso      1.000     H          0.156787  
         H41       1.0000    0.64720   0.36040   0.12690   Biso      1.000     H          0.139628  
         H42       1.0000    0.64720   0.63960   0.87310   Biso      1.000     H          0.139627  
         H43       1.0000    0.92210   0.69150   0.87880   Biso      1.000     H          0.156785  
         H44       1.0000    0.37570   0.78250   0.50580   Biso      1.000     H          0.154788  
         H45       1.0000    0.33620   0.83120   0.55590   Biso      1.000     H          0.157636  
         H46       1.0000    0.42210   0.80850   0.62120   Biso      1.000     H          0.15678   
         H47       1.0000    0.14720   0.86040   0.62690   Biso      1.000     H          0.139634  
         H48       1.0000    0.85280   0.63960   0.62690   Biso      1.000     H          0.13963   
         H49       1.0000    0.42210   0.69150   0.62120   Biso      1.000     H          0.156783  
         H50       1.0000    0.12430   0.78250   0.99420   Biso      1.000     H          0.154793  
         H51       1.0000    0.37570   0.71750   0.50580   Biso      1.000     H          0.154786  
         H52       1.0000    0.12430   0.28250   0.00580   Biso      1.000     H          0.154789  
         H53       1.0000    0.16380   0.33120   0.05590   Biso      1.000     H          0.157648  
         H54       1.0000    0.07790   0.30850   0.12120   Biso      1.000     H          0.156783  
         H55       1.0000    0.35280   0.36040   0.12690   Biso      1.000     H          0.139623  
         H56       1.0000    0.85280   0.36040   0.37310   Biso      1.000     H          0.139631  
         H57       1.0000    0.57790   0.30850   0.37880   Biso      1.000     H          0.156786  
         H58       1.0000    0.66380   0.33120   0.44410   Biso      1.000     H          0.157649  
         H59       1.0000    0.62430   0.78250   0.50580   Biso      1.000     H          0.154789  
         H60       1.0000    0.66380   0.83120   0.55590   Biso      1.000     H          0.157636  
         H61       1.0000    0.33620   0.66880   0.55590   Biso      1.000     H          0.157648  
         H62       1.0000    0.85280   0.86040   0.62690   Biso      1.000     H          0.139634  
         H63       1.0000    0.57790   0.80850   0.62120   Biso      1.000     H          0.156781  
         H64       1.0000    0.87570   0.21750   0.00580   Biso      1.000     H          0.154793  
         H65       1.0000    0.83620   0.16880   0.05590   Biso      1.000     H          0.157644  
         H66       1.0000    0.25000   0.48210   0.25000   Biso      1.000     H          0.128569  
         H67       1.0000    0.35280   0.86040   0.87310   Biso      1.000     H          0.139639  
         H68       1.0000    0.64720   0.13960   0.12690   Biso      1.000     H          0.139639  
         H69       1.0000    0.07790   0.80850   0.87880   Biso      1.000     H          0.156782  
         H70       1.0000    0.16380   0.83120   0.94410   Biso      1.000     H          0.157644  
         H71       1.0000    0.62430   0.28250   0.49420   Biso      1.000     H          0.154786  
         H72       1.0000    0.87570   0.71750   0.99420   Biso      1.000     H          0.154787  
         O1        1.0000    0.40970   0.93484   0.99240   Biso      1.000     O          -0.54087  
         O2        1.0000    0.59030   0.56516   0.99240   Biso      1.000     O          -0.540885           
         O3        1.0000    0.59270   0.50949   0.84800   Biso      1.000     O          -0.540472           
         O4        1.0000    0.40730   0.99051   0.84800   Biso      1.000     O          -0.540465           
         O5        1.0000    0.90730   0.49051   0.34800   Biso      1.000     O          -0.54047  
         O6        1.0000    0.09270   0.00949   0.34800   Biso      1.000     O          -0.540465           
         O7        1.0000    0.09030   0.06516   0.49240   Biso      1.000     O          -0.540869           
         O8        1.0000    0.90970   0.06516   0.49240   Biso      1.000     O          -0.540869           
         O9        1.0000    0.09270   0.99051   0.65200   Biso      1.000     O          -0.540464           
         O10       1.0000    0.40730   0.49051   0.15200   Biso      1.000     O          -0.540472           
         O11       1.0000    0.40970   0.43484   0.00760   Biso      1.000     O          -0.540885           
         O12       1.0000    0.40970   0.56516   0.99240   Biso      1.000     O          -0.540884           
         O13       1.0000    0.40730   0.50949   0.84800   Biso      1.000     O          -0.540471           
         O14       1.0000    0.90730   0.99051   0.65200   Biso      1.000     O          -0.540464           
         O15       1.0000    0.90970   0.93484   0.50760   Biso      1.000     O          -0.54087  
         O16       1.0000    0.09030   0.43484   0.49240   Biso      1.000     O          -0.540885           
         O17       1.0000    0.09270   0.49051   0.34800   Biso      1.000     O          -0.540472           
         O18       1.0000    0.59270   0.00949   0.15200   Biso      1.000     O          -0.540465           
         O19       1.0000    0.59030   0.06516   0.00760   Biso      1.000     O          -0.540871           
         O20       1.0000    0.09270   0.50949   0.65200   Biso      1.000     O          -0.54047  
         O21       1.0000    0.09030   0.56516   0.50760   Biso      1.000     O          -0.540883           
         O22       1.0000    0.59030   0.93484   0.99240   Biso      1.000     O          -0.54087  
         O23       1.0000    0.59270   0.99051   0.84800   Biso      1.000     O          -0.540465           
         O24       1.0000    0.40730   0.00949   0.15200   Biso      1.000     O          -0.540465           
         O25       1.0000    0.40970   0.06516   0.00760   Biso      1.000     O          -0.540871           
         O26       1.0000    0.90730   0.00949   0.34800   Biso      1.000     O          -0.540465           
         O27       1.0000    0.90730   0.50949   0.65200   Biso      1.000     O          -0.540472           
         O28       1.0000    0.90970   0.56516   0.50760   Biso      1.000     O          -0.540884           
         O29       1.0000    0.59270   0.49051   0.15200   Biso      1.000     O          -0.540471           
         O30       1.0000    0.59030   0.43484   0.00760   Biso      1.000     O          -0.540885           
         O31       1.0000    0.09030   0.93484   0.50760   Biso      1.000     O          -0.54087  
         O32       1.0000    0.90970   0.43484   0.49240   Biso      1.000     O          -0.540885 