
##########################################################################
#               Crystallographic Information Format file
#               Produced by PyCifRW module
#
#  This is a CIF file.  CIF has been adopted by the International
#  Union of Crystallography as the standard for data archiving and
#  transmission.
#
#  For information on this file format, follow the CIF links at
#  http://www.iucr.org
##########################################################################

data_image0

_cell_length_a                          6.151
_cell_length_b                          11.706
_cell_length_c                          14.063
_cell_angle_alpha                       92.255
_cell_angle_beta                        90
_cell_angle_gamma                       90
_symmetry_space_group_name_H-M          'P 1'
_symmetry_int_tables_number             1
loop_
  _symmetry_equiv_pos_as_xyz
         'x, y, z' 
loop_
  _atom_site_label
  _atom_site_occupancy
  _atom_site_fract_x
  _atom_site_fract_y
  _atom_site_fract_z
  _atom_site_thermal_displace_type
  _atom_site_B_iso_or_equiv
  _atom_site_type_symbol
  _atom_site_charge
         C1        1.0000    0.66580   0.93010   0.01480   Biso      1.000     C          0.093652  
         C2        1.0000    0.33420   0.06990   0.98520   Biso      1.000     C          0.093651  
         C3        1.0000    0.34620   0.00780   0.06680   Biso      1.000     C          0.09037   
         C4        1.0000    0.17790   0.01780   0.14490   Biso      1.000     C          0.58214   
         C5        1.0000    0.66610   0.98050   0.55840   Biso      1.000     C          0.088125  
         C6        1.0000    0.65270   0.92520   0.46960   Biso      1.000     C          0.089765  
         C7        1.0000    0.82320   0.84080   0.43460   Biso      1.000     C          0.593829  
         C8        1.0000    0.16610   0.51950   0.94160   Biso      1.000     C          0.088126  
         C9        1.0000    0.67790   0.48220   0.35510   Biso      1.000     C          0.582141  
         C10       1.0000    0.84620   0.49220   0.43320   Biso      1.000     C          0.090367  
         C11       1.0000    0.83420   0.43010   0.51480   Biso      1.000     C          0.093653  
         C12       1.0000    0.17680   0.15920   0.56540   Biso      1.000     C          0.593827  
         C13       1.0000    0.34730   0.07480   0.53040   Biso      1.000     C          0.089766  
         C14       1.0000    0.33390   0.01950   0.44160   Biso      1.000     C          0.088126  
         C15       1.0000    0.82210   0.98220   0.85510   Biso      1.000     C          0.582141  
         C16       1.0000    0.65380   0.99220   0.93320   Biso      1.000     C          0.090368  
         C17       1.0000    0.67680   0.34080   0.93460   Biso      1.000     C          0.593827  
         C18       1.0000    0.84730   0.42520   0.96960   Biso      1.000     C          0.089767  
         C19       1.0000    0.83390   0.48050   0.05840   Biso      1.000     C          0.088126  
         C20       1.0000    0.32210   0.51780   0.64490   Biso      1.000     C          0.582142  
         C21       1.0000    0.15380   0.50780   0.56680   Biso      1.000     C          0.090367  
         C22       1.0000    0.16580   0.56990   0.48520   Biso      1.000     C          0.093654  
         C23       1.0000    0.32320   0.65920   0.06540   Biso      1.000     C          0.593827  
         C24       1.0000    0.15270   0.57480   0.03040   Biso      1.000     C          0.089767  
         Er1       1.0000    0.50667   0.84627   0.24583   Biso      1.000     Er          2.034788  
         Er2       1.0000    0.99333   0.34627   0.74583   Biso      1.000     Er          2.03479   
         Er3       1.0000    0.49333   0.15373   0.75417   Biso      1.000     Er          2.034788  
         Er4       1.0000    0.00667   0.65373   0.25417   Biso      1.000     Er          2.034788  
         H1        1.0000    0.28400   0.61800   0.47680   Biso      1.000     H          0.112708  
         H2        1.0000    0.71690   0.46510   0.09780   Biso      1.000     H          0.119942  
         H3        1.0000    0.77800   0.23400   0.62000   Biso      1.000     H          0.453465  
         H4        1.0000    0.78400   0.88200   0.02320   Biso      1.000     H          0.112708  
         H5        1.0000    0.21690   0.03490   0.40220   Biso      1.000     H          0.119941  
         H6        1.0000    0.72200   0.73400   0.12000   Biso      1.000     H          0.453465  
         H7        1.0000    0.71600   0.38200   0.52320   Biso      1.000     H          0.112709  
         H8        1.0000    0.28310   0.53490   0.90220   Biso      1.000     H          0.119941  
         H9        1.0000    0.27800   0.26600   0.88000   Biso      1.000     H          0.453465  
         H10       1.0000    0.22200   0.76600   0.38000   Biso      1.000     H          0.453465  
         H11       1.0000    0.21600   0.11800   0.97680   Biso      1.000     H          0.112709  
         H12       1.0000    0.78310   0.96510   0.59780   Biso      1.000     H          0.119942  
         N1        1.0000    0.98680   0.43730   0.58100   Biso      1.000     N          -0.322722           
         N2        1.0000    0.48680   0.06270   0.91900   Biso      1.000     N          -0.322722           
         N3        1.0000    0.51570   0.05500   0.58860   Biso      1.000     N          -0.294171           
         N4        1.0000    0.01570   0.44500   0.91140   Biso      1.000     N          -0.294172           
         N5        1.0000    0.98430   0.55500   0.08860   Biso      1.000     N          -0.294171           
         N6        1.0000    0.51320   0.93730   0.08100   Biso      1.000     N          -0.322723           
         N7        1.0000    0.48430   0.94500   0.41140   Biso      1.000     N          -0.294171           
         N8        1.0000    0.01320   0.56270   0.41900   Biso      1.000     N          -0.322723           
         O1        1.0000    0.28510   0.46210   0.71800   Biso      1.000     O          -0.715025           
         O2        1.0000    0.51560   0.32790   0.98340   Biso      1.000     O          -0.49083  
         O3        1.0000    0.71670   0.28890   0.85460   Biso      1.000     O          -0.732411           
         O4        1.0000    0.73000   0.25330   0.67104   Biso      1.000     O          -1.163407           
         O5        1.0000    0.98160   0.92040   0.86890   Biso      1.000     O          -0.540218           
         O6        1.0000    0.78510   0.03790   0.78200   Biso      1.000     O          -0.715025           
         O7        1.0000    0.01560   0.17210   0.51660   Biso      1.000     O          -0.49083  
         O8        1.0000    0.21670   0.21110   0.64540   Biso      1.000     O          -0.732412           
         O9        1.0000    0.77000   0.75330   0.17104   Biso      1.000     O          -1.163406           
         O10       1.0000    0.71490   0.53790   0.28200   Biso      1.000     O          -0.715025           
         O11       1.0000    0.48440   0.67210   0.01660   Biso      1.000     O          -0.49083  
         O12       1.0000    0.28330   0.71110   0.14540   Biso      1.000     O          -0.73241  
         O13       1.0000    0.27000   0.74670   0.32896   Biso      1.000     O          -1.163406           
         O14       1.0000    0.01840   0.07960   0.13110   Biso      1.000     O          -0.540218           
         O15       1.0000    0.21490   0.96210   0.21800   Biso      1.000     O          -0.715024           
         O16       1.0000    0.98440   0.82790   0.48340   Biso      1.000     O          -0.490831           
         O17       1.0000    0.78330   0.78890   0.35460   Biso      1.000     O          -0.732413           
         O18       1.0000    0.48160   0.57960   0.63110   Biso      1.000     O          -0.540218           
         O19       1.0000    0.51840   0.42040   0.36890   Biso      1.000     O          -0.540218           
         O20       1.0000    0.23000   0.24670   0.82896   Biso      1.000     O          -1.163406 