
##########################################################################
#               Crystallographic Information Format file
#               Produced by PyCifRW module
#
#  This is a CIF file.  CIF has been adopted by the International
#  Union of Crystallography as the standard for data archiving and
#  transmission.
#
#  For information on this file format, follow the CIF links at
#  http://www.iucr.org
##########################################################################

data_image0

_cell_length_a                          6.7192
_cell_length_b                          15.2402
_cell_length_c                          15.2402
_cell_angle_alpha                       62.1212
_cell_angle_beta                        81.549
_cell_angle_gamma                       98.451
_symmetry_space_group_name_H-M          'P 1'
_symmetry_int_tables_number             1
loop_
  _symmetry_equiv_pos_as_xyz
         'x, y, z' 
loop_
  _atom_site_label
  _atom_site_occupancy
  _atom_site_fract_x
  _atom_site_fract_y
  _atom_site_fract_z
  _atom_site_thermal_displace_type
  _atom_site_B_iso_or_equiv
  _atom_site_type_symbol
  _atom_site_charge
         C1        1.0000    0.07120   0.53300   0.56620   Biso      1.000     C          0.30088899999999996           
         C2        1.0000    0.66650   0.08730   0.44700   Biso      1.000     C          -0.144616           
         C3        1.0000    0.85270   0.17540   0.38720   Biso      1.000     C          0.633944  
         C4        1.0000    0.70810   0.52910   0.98960   Biso      1.000     C          -0.199764           
         C5        1.0000    0.36260   0.43380   0.09920   Biso      1.000     C          0.30115   
         C6        1.0000    0.57920   0.46570   0.08730   Biso      1.000     C          -0.146278           
         C7        1.0000    0.67730   0.43740   0.17540   Biso      1.000     C          0.634718  
         C8        1.0000    0.17900   0.48130   0.52910   Biso      1.000     C          -0.200372           
         C9        1.0000    0.92880   0.46700   0.43380   Biso      1.000     C          0.300892  
         C10       1.0000    0.11350   0.44700   0.46570   Biso      1.000     C          -0.144336           
         C11       1.0000    0.23990   0.38720   0.43740   Biso      1.000     C          0.634849  
         C12       1.0000    0.76010   0.61280   0.56260   Biso      1.000     C          0.634862  
         C13       1.0000    0.88650   0.55300   0.53430   Biso      1.000     C          -0.144344           
         C14       1.0000    0.82100   0.51870   0.47090   Biso      1.000     C          -0.200371           
         C15       1.0000    0.32270   0.56260   0.82460   Biso      1.000     C          0.634732  
         C16       1.0000    0.42080   0.53430   0.91270   Biso      1.000     C          -0.146283           
         C17       1.0000    0.63740   0.56620   0.90080   Biso      1.000     C          0.301144  
         C18       1.0000    0.29190   0.47090   0.01040   Biso      1.000     C          -0.199762           
         C19       1.0000    0.14730   0.82460   0.61280   Biso      1.000     C          0.6339640000000001  
         C20       1.0000    0.33350   0.91270   0.55300   Biso      1.000     C          -0.14463  
         C21       1.0000    0.53820   0.90080   0.53300   Biso      1.000     C          0.301216  
         C22       1.0000    0.30230   0.01040   0.51870   Biso      1.000     C          -0.20014300000000002          
         C23       1.0000    0.46180   0.09920   0.46700   Biso      1.000     C          0.301213  
         C24       1.0000    0.69770   0.98960   0.48130   Biso      1.000     C          -0.200146           
         Co1       1.0000    0.30199   0.26484   0.31420   Biso      1.000     Co          0.969678  
         Co2       1.0000    0.03715   0.42096   0.26484   Biso      1.000     Co          0.9692    
         Co3       1.0000    0.61619   0.31420   0.42096   Biso      1.000     Co          0.969717  
         Co4       1.0000    0.69801   0.73516   0.68580   Biso      1.000     Co          0.969742  
         Co5       1.0000    0.38381   0.68580   0.57904   Biso      1.000     Co          0.969842  
         Co6       1.0000    0.96285   0.57904   0.73516   Biso      1.000     Co          0.969198  
         H1        1.0000    0.16670   0.01660   0.53120   Biso      1.000     H          0.145267  
         H2        1.0000    0.15010   0.45220   0.01660   Biso      1.000     H          0.145241  
         H3        1.0000    0.84990   0.54780   0.98340   Biso      1.000     H          0.14524   
         H4        1.0000    0.83330   0.98340   0.46880   Biso      1.000     H          0.145266  
         H5        1.0000    0.69790   0.53120   0.45220   Biso      1.000     H          0.145837  
         H6        1.0000    0.30210   0.46880   0.54780   Biso      1.000     H          0.14583800000000002           
         O1        1.0000    0.81350   0.64580   0.62050   Biso      1.000     O          -0.590188           
         O2        1.0000    0.77720   0.63010   0.81080   Biso      1.000     O          -0.585001           
         O3        1.0000    0.12960   0.52540   0.84230   Biso      1.000     O          -0.529854           
         O4        1.0000    0.43400   0.62050   0.73370   Biso      1.000     O          -0.589687           
         O5        1.0000    0.16770   0.73370   0.64580   Biso      1.000     O          -0.589166           
         O6        1.0000    0.14710   0.55910   0.63010   Biso      1.000     O          -0.5859439999999999           
         O7        1.0000    0.60420   0.63230   0.52540   Biso      1.000     O          -0.530325           
         O8        1.0000    0.41200   0.18920   0.44090   Biso      1.000     O          -0.585667           
         O9        1.0000    0.56600   0.37950   0.26630   Biso      1.000     O          -0.589667           
         O10       1.0000    0.83230   0.26630   0.35420   Biso      1.000     O          -0.5891569999999999           
         O11       1.0000    0.22280   0.36990   0.18920   Biso      1.000     O          -0.585008           
         O12       1.0000    0.87040   0.47460   0.15770   Biso      1.000     O          -0.529848           
         O13       1.0000    0.85290   0.44090   0.36990   Biso      1.000     O          -0.5859310000000001           
         O14       1.0000    0.39580   0.36770   0.47460   Biso      1.000     O          -0.530304           
         O15       1.0000    0.18650   0.35420   0.37950   Biso      1.000     O          -0.590186           
         O16       1.0000    0.97190   0.84230   0.63230   Biso      1.000     O          -0.530506           
         O17       1.0000    0.02810   0.15770   0.36770   Biso      1.000     O          -0.5304800000000001           
         O18       1.0000    0.58800   0.81080   0.55910   Biso      1.000     O          -0.585673 