
##########################################################################
#               Crystallographic Information Format file
#               Produced by PyCifRW module
#
#  This is a CIF file.  CIF has been adopted by the International
#  Union of Crystallography as the standard for data archiving and
#  transmission.
#
#  For information on this file format, follow the CIF links at
#  http://www.iucr.org
##########################################################################

data_image0

_cell_length_a                          9.076
_cell_length_b                          9.867
_cell_length_c                          16.303
_cell_angle_alpha                       103.349
_cell_angle_beta                        104.11
_cell_angle_gamma                       98.526
_symmetry_space_group_name_H-M          'P 1'
_symmetry_int_tables_number             1
loop_
  _symmetry_equiv_pos_as_xyz
         'x, y, z' 
loop_
  _atom_site_label
  _atom_site_occupancy
  _atom_site_fract_x
  _atom_site_fract_y
  _atom_site_fract_z
  _atom_site_thermal_displace_type
  _atom_site_B_iso_or_equiv
  _atom_site_type_symbol
  _atom_site_charge
         C1        1.0000    0.03420   0.50100   0.69980   Biso      1.000     C          0.700023  
         C2        1.0000    0.32570   0.16240   0.89290   Biso      1.000     C          -0.13769800000000001          
         C3        1.0000    0.28890   0.28000   0.95750   Biso      1.000     C          -0.352126           
         C4        1.0000    0.13850   0.32220   0.92490   Biso      1.000     C          0.685238  
         C5        1.0000    0.55000   0.57870   0.74890   Biso      1.000     C          0.706394  
         C6        1.0000    0.47420   0.65300   0.81330   Biso      1.000     C          -0.354477           
         C7        1.0000    0.30510   0.65790   0.77450   Biso      1.000     C          -0.130333           
         C8        1.0000    0.19980   0.50920   0.74900   Biso      1.000     C          -0.340215           
         C9        1.0000    0.42820   0.81630   0.31670   Biso      1.000     C          0.705228  
         C10       1.0000    0.54170   0.95160   0.32780   Biso      1.000     C          -0.344231           
         C11       1.0000    0.46660   0.07910   0.32720   Biso      1.000     C          -0.126595           
         C12       1.0000    0.38700   0.10860   0.39900   Biso      1.000     C          -0.348537           
         C13       1.0000    0.35140   0.25450   0.41120   Biso      1.000     C          0.691986  
         C14       1.0000    0.38230   0.74280   0.08020   Biso      1.000     C          0.65554   
         C15       1.0000    0.50750   0.85640   0.07440   Biso      1.000     C          -0.345812           
         C16       1.0000    0.67430   0.83760   0.10710   Biso      1.000     C          -0.137696           
         C17       1.0000    0.71110   0.72000   0.04250   Biso      1.000     C          -0.352126           
         C18       1.0000    0.86150   0.67780   0.07510   Biso      1.000     C          0.685237  
         C19       1.0000    0.45000   0.42130   0.25110   Biso      1.000     C          0.706394  
         C20       1.0000    0.52580   0.34700   0.18670   Biso      1.000     C          -0.354478           
         C21       1.0000    0.69490   0.34210   0.22550   Biso      1.000     C          -0.130333           
         C22       1.0000    0.80020   0.49080   0.25100   Biso      1.000     C          -0.340215           
         C23       1.0000    0.49250   0.14360   0.92560   Biso      1.000     C          -0.34580900000000003          
         C24       1.0000    0.61770   0.25720   0.91980   Biso      1.000     C          0.65554   
         C25       1.0000    0.96580   0.49900   0.30020   Biso      1.000     C          0.700023  
         C26       1.0000    0.45830   0.04840   0.67220   Biso      1.000     C          -0.344231           
         C27       1.0000    0.61300   0.89140   0.60100   Biso      1.000     C          -0.348536           
         C28       1.0000    0.57180   0.18370   0.68330   Biso      1.000     C          0.705228  
         C29       1.0000    0.64860   0.74550   0.58880   Biso      1.000     C          0.691986  
         C30       1.0000    0.53340   0.92090   0.67280   Biso      1.000     C          -0.126595           
         H1        1.0000    0.70870   0.96250   0.61680   Biso      1.000     H          0.15082   
         H2        1.0000    0.70470   0.30740   0.27720   Biso      1.000     H          0.09905800000000001           
         H3        1.0000    0.52050   0.39440   0.14050   Biso      1.000     H          0.147067  
         H4        1.0000    0.46610   0.24990   0.15960   Biso      1.000     H          0.143482  
         H5        1.0000    0.62740   0.63640   0.02530   Biso      1.000     H          0.144596  
         H6        1.0000    0.71260   0.75030   0.99010   Biso      1.000     H          0.137606  
         H7        1.0000    0.74650   0.92660   0.11650   Biso      1.000     H          0.102201  
         H8        1.0000    0.68860   0.81560   0.16310   Biso      1.000     H          0.097816  
         H9        1.0000    0.49950   0.94830   0.10830   Biso      1.000     H          0.137571  
         H10       1.0000    0.48750   0.85830   0.01350   Biso      1.000     H          0.13609100000000002           
         H11       1.0000    0.29130   0.03750   0.38320   Biso      1.000     H          0.150821  
         H12       1.0000    0.45410   0.10270   0.45370   Biso      1.000     H          0.12041700000000001           
         H13       1.0000    0.62260   0.97250   0.38310   Biso      1.000     H          0.130382  
         H14       1.0000    0.59050   0.93690   0.28070   Biso      1.000     H          0.14916600000000002           
         H15       1.0000    0.72750   0.27670   0.18270   Biso      1.000     H          0.101749  
         H16       1.0000    0.75780   0.55800   0.28710   Biso      1.000     H          0.15904400000000002           
         H17       1.0000    0.20110   0.48040   0.80210   Biso      1.000     H          0.132159  
         H18       1.0000    0.54570   0.16260   0.33510   Biso      1.000     H          0.095475  
         H19       1.0000    0.54590   0.89730   0.54630   Biso      1.000     H          0.12041700000000001           
         H20       1.0000    0.51250   0.14170   0.98650   Biso      1.000     H          0.13609000000000002           
         H21       1.0000    0.50050   0.05170   0.89170   Biso      1.000     H          0.137571  
         H22       1.0000    0.31140   0.18440   0.83690   Biso      1.000     H          0.097816  
         H23       1.0000    0.25350   0.07340   0.88350   Biso      1.000     H          0.102201  
         H24       1.0000    0.45430   0.83740   0.66490   Biso      1.000     H          0.095475  
         H25       1.0000    0.28740   0.24970   0.00990   Biso      1.000     H          0.137605  
         H26       1.0000    0.37260   0.36360   0.97470   Biso      1.000     H          0.144596  
         H27       1.0000    0.60930   0.93860   0.72960   Biso      1.000     H          0.113601  
         H28       1.0000    0.40950   0.06310   0.71930   Biso      1.000     H          0.14916600000000002           
         H29       1.0000    0.53390   0.75010   0.84040   Biso      1.000     H          0.143481  
         H30       1.0000    0.47950   0.60560   0.85950   Biso      1.000     H          0.147067  
         H31       1.0000    0.37740   0.02750   0.61690   Biso      1.000     H          0.130382  
         H32       1.0000    0.29530   0.69260   0.72280   Biso      1.000     H          0.09905800000000001           
         H33       1.0000    0.27250   0.72330   0.81730   Biso      1.000     H          0.101749  
         H34       1.0000    0.24220   0.44200   0.71290   Biso      1.000     H          0.15904300000000002           
         H35       1.0000    0.79890   0.51960   0.19790   Biso      1.000     H          0.132159  
         H36       1.0000    0.39070   0.06140   0.27040   Biso      1.000     H          0.113601  
         La1       1.0000    0.84842   0.42670   0.86433   Biso      1.000     La          1.923874  
         La2       1.0000    0.69213   0.45144   0.59811   Biso      1.000     La          1.932663  
         La3       1.0000    0.30787   0.54856   0.40189   Biso      1.000     La          1.932664  
         La4       1.0000    0.15158   0.57330   0.13567   Biso      1.000     La          1.923873  
         O1        1.0000    0.48600   0.54710   0.66773   Biso      1.000     O          -0.595418           
         O2        1.0000    0.30190   0.78470   0.25720   Biso      1.000     O          -0.636695           
         O3        1.0000    0.46680   0.74200   0.36750   Biso      1.000     O          -0.655658           
         O4        1.0000    0.69810   0.21530   0.74280   Biso      1.000     O          -0.636695           
         O5        1.0000    0.23790   0.27470   0.35701   Biso      1.000     O          -0.590134           
         O6        1.0000    0.44050   0.35800   0.47328   Biso      1.000     O          -0.702704           
         O7        1.0000    0.53320   0.25800   0.63250   Biso      1.000     O          -0.655658           
         O8        1.0000    0.76210   0.72530   0.64299   Biso      1.000     O          -0.590134           
         O9        1.0000    0.55950   0.64200   0.52672   Biso      1.000     O          -0.702704           
         O10       1.0000    0.24160   0.75600   0.05665   Biso      1.000     O          -0.659563           
         O11       1.0000    0.41670   0.64290   0.11020   Biso      1.000     O          -0.615695           
         O12       1.0000    0.75840   0.24400   0.94335   Biso      1.000     O          -0.659563           
         O13       1.0000    0.89180   0.57310   0.02409   Biso      1.000     O          -0.7331979999999999           
         O14       1.0000    0.95540   0.73920   0.14874   Biso      1.000     O          -0.567641           
         O15       1.0000    0.58330   0.35710   0.88980   Biso      1.000     O          -0.615695           
         O16       1.0000    0.31820   0.44790   0.22220   Biso      1.000     O          -0.713838           
         O17       1.0000    0.51400   0.45290   0.33227   Biso      1.000     O          -0.595418           
         O18       1.0000    0.10820   0.42690   0.97591   Biso      1.000     O          -0.7331979999999999           
         O19       1.0000    0.04460   0.26080   0.85126   Biso      1.000     O          -0.567641           
         O20       1.0000    0.68180   0.55210   0.77780   Biso      1.000     O          -0.713838           
         O21       1.0000    0.99790   0.45830   0.36815   Biso      1.000     O          -0.619066           
         O22       1.0000    0.00210   0.54170   0.63185   Biso      1.000     O          -0.619066           
         O23       1.0000    0.92420   0.44450   0.72570   Biso      1.000     O          -0.729617           
         O24       1.0000    0.07580   0.55550   0.27430   Biso      1.000     O          -0.729617 