
##########################################################################
#               Crystallographic Information Format file
#               Produced by PyCifRW module
#
#  This is a CIF file.  CIF has been adopted by the International
#  Union of Crystallography as the standard for data archiving and
#  transmission.
#
#  For information on this file format, follow the CIF links at
#  http://www.iucr.org
##########################################################################

data_image0

_cell_length_a                          21.9828
_cell_length_b                          29.985
_cell_length_c                          10.4146
_cell_angle_alpha                       90
_cell_angle_beta                        90
_cell_angle_gamma                       90
_symmetry_space_group_name_H-M          'P 1'
_symmetry_int_tables_number             1
loop_
  _symmetry_equiv_pos_as_xyz
         'x, y, z' 
loop_
  _atom_site_label
  _atom_site_occupancy
  _atom_site_fract_x
  _atom_site_fract_y
  _atom_site_fract_z
  _atom_site_thermal_displace_type
  _atom_site_B_iso_or_equiv
  _atom_site_type_symbol
  _atom_site_charge
         C1        1.0000    0.42087   0.55930   0.06030   Biso      1.000     C          0.628877  
         C2        1.0000    0.72332   0.28858   0.78660   Biso      1.000     C          0.119801  
         C3        1.0000    0.07913   0.94070   0.43970   Biso      1.000     C          0.628877  
         C4        1.0000    0.11938   0.90223   0.40190   Biso      1.000     C          -0.027439           
         C5        1.0000    0.14155   0.89914   0.27780   Biso      1.000     C          -0.098964           
         C6        1.0000    0.17679   0.86307   0.24110   Biso      1.000     C          -0.141841           
         C7        1.0000    0.18956   0.82921   0.32690   Biso      1.000     C          0.068649  
         C8        1.0000    0.13313   0.86886   0.48870   Biso      1.000     C          -0.09816  
         C9        1.0000    0.66729   0.33227   0.95060   Biso      1.000     C          -0.143357           
         C10       1.0000    0.16729   0.83227   0.45060   Biso      1.000     C          -0.143358           
         C11       1.0000    0.42087   0.05930   0.93970   Biso      1.000     C          0.628877  
         C12       1.0000    0.38062   0.09777   0.90190   Biso      1.000     C          -0.027439           
         C13       1.0000    0.35845   0.10086   0.77780   Biso      1.000     C          -0.098964           
         C14       1.0000    0.32321   0.13693   0.74110   Biso      1.000     C          -0.141841           
         C15       1.0000    0.31044   0.17079   0.82690   Biso      1.000     C          0.068649  
         C16       1.0000    0.36687   0.13114   0.98870   Biso      1.000     C          -0.09816  
         C17       1.0000    0.33271   0.16773   0.95060   Biso      1.000     C          -0.143358           
         C18       1.0000    0.22332   0.78858   0.28660   Biso      1.000     C          0.119801  
         C19       1.0000    0.68956   0.32921   0.82690   Biso      1.000     C          0.068649  
         C20       1.0000    0.67679   0.36307   0.74110   Biso      1.000     C          -0.141843           
         C21       1.0000    0.64155   0.39914   0.77780   Biso      1.000     C          -0.098964           
         C22       1.0000    0.38062   0.40223   0.90190   Biso      1.000     C          -0.027439           
         C23       1.0000    0.35845   0.39914   0.77780   Biso      1.000     C          -0.098964           
         C24       1.0000    0.32321   0.36307   0.74110   Biso      1.000     C          -0.141841           
         C25       1.0000    0.31044   0.32921   0.82690   Biso      1.000     C          0.068649  
         C26       1.0000    0.36687   0.36886   0.98870   Biso      1.000     C          -0.09816  
         C27       1.0000    0.33271   0.33227   0.95060   Biso      1.000     C          -0.143358           
         C28       1.0000    0.27668   0.28858   0.78660   Biso      1.000     C          0.119801  
         C29       1.0000    0.92087   0.94070   0.43970   Biso      1.000     C          0.628877  
         C30       1.0000    0.88062   0.90223   0.40190   Biso      1.000     C          -0.027439           
         C31       1.0000    0.85845   0.89914   0.27780   Biso      1.000     C          -0.098964           
         C32       1.0000    0.82321   0.86307   0.24110   Biso      1.000     C          -0.141841           
         C33       1.0000    0.81044   0.82921   0.32690   Biso      1.000     C          0.068649  
         C34       1.0000    0.86687   0.86886   0.48870   Biso      1.000     C          -0.09816  
         C35       1.0000    0.83271   0.83227   0.45060   Biso      1.000     C          -0.143358           
         C36       1.0000    0.77668   0.78858   0.28660   Biso      1.000     C          0.119801  
         C37       1.0000    0.57913   0.44070   0.93970   Biso      1.000     C          0.628877  
         C38       1.0000    0.61938   0.40223   0.90190   Biso      1.000     C          -0.027438           
         C39       1.0000    0.27668   0.21142   0.78660   Biso      1.000     C          0.119801  
         C40       1.0000    0.42087   0.44070   0.93970   Biso      1.000     C          0.628877  
         C41       1.0000    0.92087   0.55930   0.43970   Biso      1.000     C          0.628877  
         C42       1.0000    0.85845   0.60086   0.27780   Biso      1.000     C          -0.098966           
         C43       1.0000    0.57913   0.55930   0.06030   Biso      1.000     C          0.628877  
         C44       1.0000    0.61938   0.59777   0.09810   Biso      1.000     C          -0.027439           
         C45       1.0000    0.64155   0.60086   0.22220   Biso      1.000     C          -0.098964           
         C46       1.0000    0.67679   0.63693   0.25890   Biso      1.000     C          -0.141841           
         C47       1.0000    0.68956   0.67079   0.17310   Biso      1.000     C          0.068649  
         C48       1.0000    0.63313   0.63114   0.01130   Biso      1.000     C          -0.09816  
         C49       1.0000    0.66729   0.66773   0.04940   Biso      1.000     C          -0.143358           
         C50       1.0000    0.77668   0.28858   0.71340   Biso      1.000     C          0.119801  
         C51       1.0000    0.72332   0.71142   0.21340   Biso      1.000     C          0.119801  
         C52       1.0000    0.11938   0.09777   0.59810   Biso      1.000     C          -0.027439           
         C53       1.0000    0.14155   0.10086   0.72220   Biso      1.000     C          -0.098964           
         C54       1.0000    0.17679   0.13693   0.75890   Biso      1.000     C          -0.141841           
         C55       1.0000    0.18956   0.17079   0.67310   Biso      1.000     C          0.068649  
         C56       1.0000    0.13313   0.13114   0.51130   Biso      1.000     C          -0.09816  
         C57       1.0000    0.16729   0.16773   0.54940   Biso      1.000     C          -0.143358           
         C58       1.0000    0.22332   0.21142   0.71340   Biso      1.000     C          0.119801  
         C59       1.0000    0.07913   0.05930   0.56030   Biso      1.000     C          0.628877  
         C60       1.0000    0.83271   0.33227   0.54940   Biso      1.000     C          -0.143357           
         C61       1.0000    0.86687   0.36886   0.51130   Biso      1.000     C          -0.09816  
         C62       1.0000    0.81044   0.32921   0.67310   Biso      1.000     C          0.068649  
         C63       1.0000    0.82321   0.63693   0.24110   Biso      1.000     C          -0.141841           
         C64       1.0000    0.81044   0.67079   0.32690   Biso      1.000     C          0.068649  
         C65       1.0000    0.86687   0.63114   0.48870   Biso      1.000     C          -0.09816  
         C66       1.0000    0.83271   0.66773   0.45060   Biso      1.000     C          -0.143358           
         C67       1.0000    0.77668   0.71142   0.28660   Biso      1.000     C          0.119801  
         C68       1.0000    0.42087   0.94070   0.06030   Biso      1.000     C          0.628877  
         C69       1.0000    0.38062   0.90223   0.09810   Biso      1.000     C          -0.027439           
         C70       1.0000    0.35845   0.89914   0.22220   Biso      1.000     C          -0.098964           
         C71       1.0000    0.32321   0.86307   0.25890   Biso      1.000     C          -0.141841           
         C72       1.0000    0.31044   0.82921   0.17310   Biso      1.000     C          0.068649  
         C73       1.0000    0.36687   0.86886   0.01130   Biso      1.000     C          -0.09816  
         C74       1.0000    0.33271   0.83227   0.04940   Biso      1.000     C          -0.143358           
         C75       1.0000    0.27668   0.78858   0.21340   Biso      1.000     C          0.119801  
         C76       1.0000    0.92087   0.44070   0.56030   Biso      1.000     C          0.628877  
         C77       1.0000    0.88062   0.40223   0.59810   Biso      1.000     C          -0.027439           
         C78       1.0000    0.85845   0.39914   0.72220   Biso      1.000     C          -0.098964           
         C79       1.0000    0.82321   0.36307   0.75890   Biso      1.000     C          -0.141841           
         C80       1.0000    0.88062   0.59777   0.40190   Biso      1.000     C          -0.027438           
         C81       1.0000    0.22332   0.71142   0.28660   Biso      1.000     C          0.119801  
         C82       1.0000    0.63313   0.36886   0.98870   Biso      1.000     C          -0.098161           
         C83       1.0000    0.88062   0.09777   0.59810   Biso      1.000     C          -0.027439           
         C84       1.0000    0.68956   0.17079   0.82690   Biso      1.000     C          0.068649  
         C85       1.0000    0.67679   0.13693   0.74110   Biso      1.000     C          -0.141843           
         C86       1.0000    0.31044   0.67079   0.17310   Biso      1.000     C          0.068649  
         C87       1.0000    0.61938   0.90223   0.09810   Biso      1.000     C          -0.027439           
         C88       1.0000    0.64155   0.10086   0.77780   Biso      1.000     C          -0.098964           
         C89       1.0000    0.64155   0.89914   0.22220   Biso      1.000     C          -0.098964           
         C90       1.0000    0.61938   0.09777   0.90190   Biso      1.000     C          -0.027438           
         C91       1.0000    0.35845   0.60086   0.22220   Biso      1.000     C          -0.098966           
         C92       1.0000    0.57913   0.05930   0.93970   Biso      1.000     C          0.628877  
         C93       1.0000    0.67679   0.86307   0.25890   Biso      1.000     C          -0.141841           
         C94       1.0000    0.32321   0.63693   0.25890   Biso      1.000     C          -0.141841           
         C95       1.0000    0.22332   0.28858   0.71340   Biso      1.000     C          0.119801  
         C96       1.0000    0.33271   0.66773   0.04940   Biso      1.000     C          -0.143357           
         C97       1.0000    0.16729   0.33227   0.54940   Biso      1.000     C          -0.143357           
         C98       1.0000    0.68956   0.82921   0.17310   Biso      1.000     C          0.068649  
         C99       1.0000    0.13313   0.36886   0.51130   Biso      1.000     C          -0.09816  
         C100      1.0000    0.63313   0.86886   0.01130   Biso      1.000     C          -0.09816  
         C101      1.0000    0.85845   0.10086   0.72220   Biso      1.000     C          -0.098964           
         C102      1.0000    0.18956   0.32921   0.67310   Biso      1.000     C          0.068649  
         C103      1.0000    0.17679   0.36307   0.75890   Biso      1.000     C          -0.141843           
         C104      1.0000    0.66729   0.83227   0.04940   Biso      1.000     C          -0.143358           
         C105      1.0000    0.14155   0.39914   0.72220   Biso      1.000     C          -0.098964           
         C106      1.0000    0.11938   0.40223   0.59810   Biso      1.000     C          -0.027438           
         C107      1.0000    0.07913   0.44070   0.56030   Biso      1.000     C          0.628877  
         C108      1.0000    0.72332   0.78858   0.21340   Biso      1.000     C          0.119801  
         C109      1.0000    0.63313   0.13114   0.98870   Biso      1.000     C          -0.09816  
         C110      1.0000    0.38062   0.59777   0.09810   Biso      1.000     C          -0.027438           
         C111      1.0000    0.57913   0.94070   0.06030   Biso      1.000     C          0.628877  
         C112      1.0000    0.36687   0.63114   0.01130   Biso      1.000     C          -0.09816  
         C113      1.0000    0.11938   0.59777   0.40190   Biso      1.000     C          -0.027439           
         C114      1.0000    0.07913   0.55930   0.43970   Biso      1.000     C          0.628877  
         C115      1.0000    0.14155   0.60086   0.27780   Biso      1.000     C          -0.098964           
         C116      1.0000    0.17679   0.63693   0.24110   Biso      1.000     C          -0.141841           
         C117      1.0000    0.83271   0.16773   0.54940   Biso      1.000     C          -0.143357           
         C118      1.0000    0.13313   0.63114   0.48870   Biso      1.000     C          -0.09816  
         C119      1.0000    0.86687   0.13114   0.51130   Biso      1.000     C          -0.09816  
         C120      1.0000    0.18956   0.67079   0.32690   Biso      1.000     C          0.068649  
         C121      1.0000    0.81044   0.17079   0.67310   Biso      1.000     C          0.068649  
         C122      1.0000    0.16729   0.66773   0.45060   Biso      1.000     C          -0.143358           
         C123      1.0000    0.27668   0.71142   0.21340   Biso      1.000     C          0.119801  
         C124      1.0000    0.92087   0.05930   0.56030   Biso      1.000     C          0.628877  
         C125      1.0000    0.82321   0.13693   0.75890   Biso      1.000     C          -0.141842           
         C126      1.0000    0.66729   0.16773   0.95060   Biso      1.000     C          -0.143358           
         C127      1.0000    0.77668   0.21142   0.71340   Biso      1.000     C          0.119801  
         C128      1.0000    0.72332   0.21142   0.78660   Biso      1.000     C          0.119801  
         H1        1.0000    0.17530   0.69050   0.50900   Biso      1.000     H          0.120448  
         H2        1.0000    0.82470   0.30950   0.49100   Biso      1.000     H          0.120448  
         H3        1.0000    0.86730   0.57850   0.21870   Biso      1.000     H          0.120254  
         H4        1.0000    0.86730   0.07850   0.78130   Biso      1.000     H          0.120254  
         H5        1.0000    0.63270   0.57850   0.28130   Biso      1.000     H          0.120254  
         H6        1.0000    0.67530   0.80950   0.99100   Biso      1.000     H          0.120448  
         H7        1.0000    0.38060   0.62910   0.92700   Biso      1.000     H          0.120274  
         H8        1.0000    0.80800   0.63840   0.15790   Biso      1.000     H          0.115031  
         H9        1.0000    0.88060   0.37090   0.42700   Biso      1.000     H          0.120274  
         H10       1.0000    0.32470   0.80950   0.99100   Biso      1.000     H          0.120448  
         H11       1.0000    0.80800   0.13840   0.84210   Biso      1.000     H          0.115031  
         H12       1.0000    0.82470   0.69050   0.50900   Biso      1.000     H          0.120448  
         H13       1.0000    0.61940   0.62910   0.92700   Biso      1.000     H          0.120274  
         H14       1.0000    0.80800   0.36160   0.84210   Biso      1.000     H          0.115031  
         H15       1.0000    0.67530   0.69050   0.99100   Biso      1.000     H          0.120448  
         H16       1.0000    0.63270   0.92150   0.28130   Biso      1.000     H          0.120254  
         H17       1.0000    0.86730   0.42150   0.78130   Biso      1.000     H          0.120254  
         H18       1.0000    0.88060   0.12910   0.42700   Biso      1.000     H          0.120274  
         H19       1.0000    0.82470   0.19050   0.49100   Biso      1.000     H          0.120448  
         H20       1.0000    0.36730   0.92150   0.28130   Biso      1.000     H          0.120254  
         H21       1.0000    0.30800   0.86160   0.34210   Biso      1.000     H          0.115031  
         H22       1.0000    0.69200   0.63840   0.34210   Biso      1.000     H          0.115031  
         H23       1.0000    0.32470   0.69050   0.99100   Biso      1.000     H          0.120448  
         H24       1.0000    0.38060   0.87090   0.92700   Biso      1.000     H          0.120274  
         H25       1.0000    0.88060   0.62910   0.57300   Biso      1.000     H          0.120274  
         H26       1.0000    0.69200   0.86160   0.34210   Biso      1.000     H          0.115031  
         H27       1.0000    0.61940   0.87090   0.92700   Biso      1.000     H          0.120274  
         H28       1.0000    0.32470   0.19050   0.00900   Biso      1.000     H          0.120448  
         H29       1.0000    0.63270   0.42150   0.71870   Biso      1.000     H          0.120254  
         H30       1.0000    0.13270   0.07850   0.78130   Biso      1.000     H          0.120254  
         H31       1.0000    0.61940   0.12910   0.07300   Biso      1.000     H          0.120274  
         H32       1.0000    0.82470   0.80950   0.50900   Biso      1.000     H          0.120448  
         H33       1.0000    0.88060   0.87090   0.57300   Biso      1.000     H          0.120274  
         H34       1.0000    0.67530   0.19050   0.00900   Biso      1.000     H          0.120448  
         H35       1.0000    0.80800   0.86160   0.15790   Biso      1.000     H          0.115031  
         H36       1.0000    0.86730   0.92150   0.21870   Biso      1.000     H          0.120254  
         H37       1.0000    0.32470   0.30950   0.00900   Biso      1.000     H          0.120448  
         H38       1.0000    0.13270   0.57850   0.21870   Biso      1.000     H          0.120254  
         H39       1.0000    0.38060   0.37090   0.07300   Biso      1.000     H          0.120274  
         H40       1.0000    0.19200   0.63840   0.15790   Biso      1.000     H          0.115031  
         H41       1.0000    0.30800   0.36160   0.65790   Biso      1.000     H          0.115031  
         H42       1.0000    0.36730   0.42150   0.71870   Biso      1.000     H          0.120254  
         H43       1.0000    0.11940   0.62910   0.57300   Biso      1.000     H          0.120274  
         H44       1.0000    0.69200   0.36160   0.65790   Biso      1.000     H          0.115031  
         H45       1.0000    0.63270   0.07850   0.71870   Biso      1.000     H          0.120254  
         H46       1.0000    0.69200   0.13840   0.65790   Biso      1.000     H          0.115031  
         H47       1.0000    0.61940   0.37090   0.07300   Biso      1.000     H          0.120274  
         H48       1.0000    0.38060   0.12910   0.07300   Biso      1.000     H          0.120274  
         H49       1.0000    0.30800   0.13840   0.65790   Biso      1.000     H          0.115031  
         H50       1.0000    0.13270   0.42150   0.78130   Biso      1.000     H          0.120254  
         H51       1.0000    0.36730   0.07850   0.71870   Biso      1.000     H          0.120254  
         H52       1.0000    0.19200   0.36160   0.84210   Biso      1.000     H          0.115031  
         H53       1.0000    0.19200   0.13840   0.84210   Biso      1.000     H          0.115031  
         H54       1.0000    0.17530   0.80950   0.50900   Biso      1.000     H          0.120448  
         H55       1.0000    0.17530   0.19050   0.49100   Biso      1.000     H          0.120448  
         H56       1.0000    0.11940   0.37090   0.42700   Biso      1.000     H          0.120274  
         H57       1.0000    0.30800   0.63840   0.34210   Biso      1.000     H          0.115031  
         H58       1.0000    0.11940   0.87090   0.57300   Biso      1.000     H          0.120274  
         H59       1.0000    0.17530   0.30950   0.49100   Biso      1.000     H          0.120448  
         H60       1.0000    0.19200   0.86160   0.15790   Biso      1.000     H          0.115031  
         H61       1.0000    0.13270   0.92150   0.21870   Biso      1.000     H          0.120254  
         H62       1.0000    0.36730   0.57850   0.28130   Biso      1.000     H          0.120254  
         H63       1.0000    0.11940   0.12910   0.42700   Biso      1.000     H          0.120274  
         H64       1.0000    0.67530   0.30950   0.00900   Biso      1.000     H          0.120448  
         N1        1.0000    0.19807   0.25000   0.67530   Biso      1.000     N          -0.290912           
         N2        1.0000    0.69807   0.25000   0.82470   Biso      1.000     N          -0.290912           
         N3        1.0000    0.30193   0.75000   0.17530   Biso      1.000     N          -0.290912           
         N4        1.0000    0.19807   0.75000   0.32470   Biso      1.000     N          -0.290912           
         N5        1.0000    0.80193   0.25000   0.67530   Biso      1.000     N          -0.290912           
         N6        1.0000    0.69807   0.75000   0.17530   Biso      1.000     N          -0.290912           
         N7        1.0000    0.80193   0.75000   0.32470   Biso      1.000     N          -0.290912           
         N8        1.0000    0.30193   0.25000   0.82470   Biso      1.000     N          -0.290912           
         O1        1.0000    0.93605   0.46737   0.64636   Biso      1.000     O          -0.578549           
         O2        1.0000    0.06334   0.55730   0.55568   Biso      1.000     O          -0.586181           
         O3        1.0000    0.43605   0.46737   0.85364   Biso      1.000     O          -0.578549           
         O4        1.0000    0.43666   0.44270   0.05568   Biso      1.000     O          -0.58618  
         O5        1.0000    0.56334   0.05730   0.05568   Biso      1.000     O          -0.586181           
         O6        1.0000    0.56395   0.03263   0.85364   Biso      1.000     O          -0.578549           
         O7        1.0000    0.93605   0.96737   0.35364   Biso      1.000     O          -0.578549           
         O8        1.0000    0.06334   0.05730   0.44432   Biso      1.000     O          -0.586181           
         O9        1.0000    0.06395   0.03263   0.64636   Biso      1.000     O          -0.578549           
         O10       1.0000    0.93666   0.94270   0.55568   Biso      1.000     O          -0.586181           
         O11       1.0000    0.93666   0.44270   0.44432   Biso      1.000     O          -0.586181           
         O12       1.0000    0.56334   0.44270   0.05568   Biso      1.000     O          -0.58618  
         O13       1.0000    0.06334   0.44270   0.44432   Biso      1.000     O          -0.58618  
         O14       1.0000    0.06395   0.46737   0.64636   Biso      1.000     O          -0.578549           
         O15       1.0000    0.06395   0.96737   0.35364   Biso      1.000     O          -0.578549           
         O16       1.0000    0.56395   0.46737   0.85364   Biso      1.000     O          -0.578549           
         O17       1.0000    0.56334   0.94270   0.94432   Biso      1.000     O          -0.586181           
         O18       1.0000    0.43666   0.55730   0.94432   Biso      1.000     O          -0.586181           
         O19       1.0000    0.43666   0.94270   0.94432   Biso      1.000     O          -0.586181           
         O20       1.0000    0.43605   0.53263   0.14636   Biso      1.000     O          -0.578549           
         O21       1.0000    0.43605   0.96737   0.14636   Biso      1.000     O          -0.578549           
         O22       1.0000    0.93605   0.03263   0.64636   Biso      1.000     O          -0.578549           
         O23       1.0000    0.93666   0.05730   0.44432   Biso      1.000     O          -0.586181           
         O24       1.0000    0.06334   0.94270   0.55568   Biso      1.000     O          -0.586181           
         O25       1.0000    0.06395   0.53263   0.35364   Biso      1.000     O          -0.578549           
         O26       1.0000    0.93666   0.55730   0.55568   Biso      1.000     O          -0.586181           
         O27       1.0000    0.93605   0.53263   0.35364   Biso      1.000     O          -0.578549           
         O28       1.0000    0.56395   0.53263   0.14636   Biso      1.000     O          -0.578549           
         O29       1.0000    0.56334   0.55730   0.94432   Biso      1.000     O          -0.586181           
         O30       1.0000    0.56395   0.96737   0.14636   Biso      1.000     O          -0.578549           
         O31       1.0000    0.43666   0.05730   0.05568   Biso      1.000     O          -0.586181           
         O32       1.0000    0.43605   0.03263   0.85364   Biso      1.000     O          -0.578549           
         Zn1       1.0000    0.00000   0.98408   0.63390   Biso      1.000     Zn          1.053229  
         Zn2       1.0000    0.50000   0.01592   0.13390   Biso      1.000     Zn          1.053229  
         Zn3       1.0000    0.50000   0.98408   0.86610   Biso      1.000     Zn          1.053229  
         Zn4       1.0000    0.00000   0.48408   0.36610   Biso      1.000     Zn          1.053229  
         Zn5       1.0000    0.50000   0.51592   0.86610   Biso      1.000     Zn          1.053229  
         Zn6       1.0000    0.00000   0.01592   0.36610   Biso      1.000     Zn          1.053229  
         Zn7       1.0000    0.50000   0.48408   0.13390   Biso      1.000     Zn          1.053228  
         Zn8       1.0000    0.00000   0.51592   0.63390   Biso      1.000     Zn          1.053229 