
##########################################################################
#               Crystallographic Information Format file
#               Produced by PyCifRW module
#
#  This is a CIF file.  CIF has been adopted by the International
#  Union of Crystallography as the standard for data archiving and
#  transmission.
#
#  For information on this file format, follow the CIF links at
#  http://www.iucr.org
##########################################################################

data_image0

_cell_length_a                          20.4375
_cell_length_b                          7.8496
_cell_length_c                          6.5934
_cell_angle_alpha                       90
_cell_angle_beta                        111.801
_cell_angle_gamma                       90
_symmetry_space_group_name_H-M          'P 1'
_symmetry_int_tables_number             1
loop_
  _symmetry_equiv_pos_as_xyz
         'x, y, z' 
loop_
  _atom_site_label
  _atom_site_occupancy
  _atom_site_fract_x
  _atom_site_fract_y
  _atom_site_fract_z
  _atom_site_thermal_displace_type
  _atom_site_B_iso_or_equiv
  _atom_site_type_symbol
  _atom_site_charge
         Al1       1.0000    0.00000   0.00000   0.00000   Biso      1.000     Al          1.586931  
         Al2       1.0000    0.50000   0.50000   0.00000   Biso      1.000     Al          1.587022  
         Al3       1.0000    0.00000   0.00000   0.50000   Biso      1.000     Al          1.586939  
         Al4       1.0000    0.50000   0.50000   0.50000   Biso      1.000     Al          1.58702   
         C1        1.0000    0.77883   0.83344   0.86956   Biso      1.000     C          -0.065495           
         C2        1.0000    0.60713   0.69230   0.89522   Biso      1.000     C          0.623053  
         C3        1.0000    0.72510   0.71101   0.18051   Biso      1.000     C          -0.035631           
         C4        1.0000    0.89679   0.14790   0.65485   Biso      1.000     C          0.67609   
         C5        1.0000    0.67955   0.73229   0.96013   Biso      1.000     C          -0.062015           
         C6        1.0000    0.79751   0.75095   0.24542   Biso      1.000     C          0.055006  
         C7        1.0000    0.82438   0.81217   0.08994   Biso      1.000     C          -0.062387           
         C8        1.0000    0.70641   0.79350   0.80465   Biso      1.000     C          0.145122  
         C9        1.0000    0.39679   0.35210   0.15485   Biso      1.000     C          0.676089  
         C10       1.0000    0.60713   0.30770   0.39522   Biso      1.000     C          0.623045  
         C11       1.0000    0.27883   0.33344   0.86956   Biso      1.000     C          -0.065434           
         C12       1.0000    0.32438   0.31217   0.08994   Biso      1.000     C          -0.062407           
         C13       1.0000    0.29751   0.25095   0.24542   Biso      1.000     C          0.055022  
         C14       1.0000    0.22510   0.21101   0.18051   Biso      1.000     C          -0.035614           
         C15       1.0000    0.10713   0.19230   0.89522   Biso      1.000     C          0.623049  
         C16       1.0000    0.17955   0.23229   0.96013   Biso      1.000     C          -0.062012           
         C17       1.0000    0.20641   0.29350   0.80465   Biso      1.000     C          0.145102  
         C18       1.0000    0.72510   0.28899   0.68051   Biso      1.000     C          -0.035617           
         C19       1.0000    0.82438   0.18783   0.58994   Biso      1.000     C          -0.06238  
         C20       1.0000    0.17955   0.76771   0.46013   Biso      1.000     C          -0.062046           
         C21       1.0000    0.20641   0.70650   0.30465   Biso      1.000     C          0.145091  
         C22       1.0000    0.27883   0.66656   0.36956   Biso      1.000     C          -0.065473           
         C23       1.0000    0.32438   0.68783   0.58994   Biso      1.000     C          -0.062436           
         C24       1.0000    0.29751   0.74905   0.74542   Biso      1.000     C          0.055023  
         C25       1.0000    0.22510   0.78899   0.68051   Biso      1.000     C          -0.035617           
         C26       1.0000    0.10713   0.80770   0.39522   Biso      1.000     C          0.623042  
         C27       1.0000    0.79751   0.24905   0.74542   Biso      1.000     C          0.055009  
         C28       1.0000    0.39679   0.64790   0.65485   Biso      1.000     C          0.676097  
         C29       1.0000    0.67955   0.26771   0.46013   Biso      1.000     C          -0.062021           
         C30       1.0000    0.70641   0.20650   0.30465   Biso      1.000     C          0.145136  
         C31       1.0000    0.77883   0.16656   0.36956   Biso      1.000     C          -0.065529           
         C32       1.0000    0.89679   0.85210   0.15485   Biso      1.000     C          0.676101  
         N1        1.0000    0.66086   0.81477   0.58427   Biso      1.000     N          -0.054411           
         N2        1.0000    0.66086   0.18523   0.08427   Biso      1.000     N          -0.05437  
         N3        1.0000    0.16086   0.68523   0.08427   Biso      1.000     N          -0.054354           
         N4        1.0000    0.16086   0.31477   0.58427   Biso      1.000     N          -0.054375           
         O1        1.0000    0.58356   0.63860   0.03165   Biso      1.000     O          -0.51659  
         O2        1.0000    0.92037   0.90580   0.01842   Biso      1.000     O          -0.529962           
         O3        1.0000    0.93676   0.83340   0.34825   Biso      1.000     O          -0.545967           
         O4        1.0000    0.56716   0.71100   0.70182   Biso      1.000     O          -0.408852           
         O5        1.0000    0.50260   0.38970   0.73900   Biso      1.000     O          -0.804982           
         O6        1.0000    0.43676   0.33340   0.34825   Biso      1.000     O          -0.545973           
         O7        1.0000    0.42037   0.40580   0.01842   Biso      1.000     O          -0.52994  
         O8        1.0000    0.08356   0.13860   0.03165   Biso      1.000     O          -0.516578           
         O9        1.0000    0.06716   0.21100   0.70182   Biso      1.000     O          -0.408872           
         O10       1.0000    0.93676   0.16660   0.84825   Biso      1.000     O          -0.545965           
         O11       1.0000    0.92037   0.09420   0.51842   Biso      1.000     O          -0.529943           
         O12       1.0000    0.58356   0.36140   0.53165   Biso      1.000     O          -0.516586           
         O13       1.0000    0.56716   0.28900   0.20182   Biso      1.000     O          -0.408844           
         O14       1.0000    0.00260   0.88970   0.73900   Biso      1.000     O          -0.804915           
         O15       1.0000    0.43676   0.66660   0.84825   Biso      1.000     O          -0.545985           
         O16       1.0000    0.42037   0.59420   0.51842   Biso      1.000     O          -0.529967           
         O17       1.0000    0.08356   0.86140   0.53165   Biso      1.000     O          -0.5166   
         O18       1.0000    0.06716   0.78900   0.20182   Biso      1.000     O          -0.408856           
         O19       1.0000    0.00260   0.11030   0.23900   Biso      1.000     O          -0.804921           
         O20       1.0000    0.50260   0.61030   0.23900   Biso      1.000     O          -0.805064 