
##########################################################################
#               Crystallographic Information Format file
#               Produced by PyCifRW module
#
#  This is a CIF file.  CIF has been adopted by the International
#  Union of Crystallography as the standard for data archiving and
#  transmission.
#
#  For information on this file format, follow the CIF links at
#  http://www.iucr.org
##########################################################################

data_image0

_cell_length_a                          12.6583
_cell_length_b                          15.5409
_cell_length_c                          16.4094
_cell_angle_alpha                       108.446
_cell_angle_beta                        98.651
_cell_angle_gamma                       109.526
_symmetry_space_group_name_H-M          'P 1'
_symmetry_int_tables_number             1
loop_
  _symmetry_equiv_pos_as_xyz
         'x, y, z' 
loop_
  _atom_site_label
  _atom_site_occupancy
  _atom_site_fract_x
  _atom_site_fract_y
  _atom_site_fract_z
  _atom_site_thermal_displace_type
  _atom_site_B_iso_or_equiv
  _atom_site_type_symbol
  _atom_site_charge
         C1        1.0000    0.53470   0.77710   0.86270   Biso      1.000     C          -0.219305           
         C2        1.0000    0.10520   0.74690   0.82800   Biso      1.000     C          -0.11332  
         C3        1.0000    0.53110   0.74940   0.29120   Biso      1.000     C          -0.246986           
         C4        1.0000    0.67620   0.21820   0.29220   Biso      1.000     C          -0.252834           
         C5        1.0000    0.55030   0.69850   0.34360   Biso      1.000     C          -0.069201           
         C6        1.0000    0.58370   0.14210   0.29720   Biso      1.000     C          0.28527   
         C7        1.0000    0.57420   0.26740   0.42760   Biso      1.000     C          -0.071862           
         C8        1.0000    0.53030   0.16730   0.36620   Biso      1.000     C          -0.235247           
         C9        1.0000    0.67230   0.34530   0.42200   Biso      1.000     C          -0.069824           
         C10       1.0000    0.67710   0.66120   0.44660   Biso      1.000     C          0.62355   
         C11       1.0000    0.62280   0.86330   0.92340   Biso      1.000     C          0.277145  
         C12       1.0000    0.08380   0.65060   0.78180   Biso      1.000     C          -0.035586           
         C13       1.0000    0.66030   0.71910   0.39250   Biso      1.000     C          -0.059453           
         C14       1.0000    0.71670   0.31450   0.35390   Biso      1.000     C          -0.066294           
         C15       1.0000    0.55070   0.72580   0.78340   Biso      1.000     C          -0.070676           
         C16       1.0000    0.89480   0.25310   0.17200   Biso      1.000     C          -0.113252           
         C17       1.0000    0.40560   0.88790   0.06370   Biso      1.000     C          -0.064814           
         C18       1.0000    0.13380   0.60090   0.80780   Biso      1.000     C          -0.067867           
         C19       1.0000    0.72330   0.89160   0.90270   Biso      1.000     C          -0.227942           
         C20       1.0000    0.62500   0.82420   0.28870   Biso      1.000     C          0.284771  
         C21       1.0000    0.19910   0.80070   0.91590   Biso      1.000     C          -0.259902           
         C22       1.0000    0.25200   0.74510   0.94040   Biso      1.000     C          0.265043  
         C23       1.0000    0.73340   0.84880   0.33960   Biso      1.000     C          -0.231955           
         C24       1.0000    0.75270   0.79600   0.39170   Biso      1.000     C          -0.082367           
         C25       1.0000    0.71140   0.44420   0.48560   Biso      1.000     C          0.604794  
         C26       1.0000    0.50510   0.85140   0.18280   Biso      1.000     C          -0.067216           
         C27       1.0000    0.78430   0.35420   0.11090   Biso      1.000     C          -0.208394           
         C28       1.0000    0.33250   0.30640   0.32020   Biso      1.000     C          0.610212  
         C29       1.0000    0.01430   0.39290   0.31700   Biso      1.000     C          0.614083  
         C30       1.0000    0.34730   0.24620   0.23450   Biso      1.000     C          -0.0324   
         C31       1.0000    0.44970   0.30150   0.65640   Biso      1.000     C          -0.069195           
         C32       1.0000    0.41630   0.85790   0.70280   Biso      1.000     C          0.28527   
         C33       1.0000    0.42580   0.73260   0.57240   Biso      1.000     C          -0.071859           
         C34       1.0000    0.46970   0.83270   0.63380   Biso      1.000     C          -0.235241           
         C35       1.0000    0.32770   0.65470   0.57800   Biso      1.000     C          -0.069825           
         C36       1.0000    0.32290   0.33880   0.55340   Biso      1.000     C          0.623554  
         C37       1.0000    0.37720   0.13670   0.07660   Biso      1.000     C          0.277132  
         C38       1.0000    0.91620   0.34940   0.21820   Biso      1.000     C          -0.035482           
         C39       1.0000    0.33970   0.28090   0.60750   Biso      1.000     C          -0.059451           
         C40       1.0000    0.28330   0.68550   0.64610   Biso      1.000     C          -0.066297           
         C41       1.0000    0.44930   0.27420   0.21660   Biso      1.000     C          -0.070643           
         C42       1.0000    0.46530   0.22290   0.13730   Biso      1.000     C          -0.219295           
         C43       1.0000    0.59120   0.01800   0.17450   Biso      1.000     C          -0.063109           
         C44       1.0000    0.59440   0.11210   0.93630   Biso      1.000     C          -0.064914           
         C45       1.0000    0.27670   0.10840   0.09730   Biso      1.000     C          -0.227954           
         C46       1.0000    0.37500   0.17580   0.71130   Biso      1.000     C          0.284771  
         C47       1.0000    0.80090   0.19930   0.08410   Biso      1.000     C          -0.261811           
         C48       1.0000    0.74800   0.25490   0.05960   Biso      1.000     C          0.26501   
         C49       1.0000    0.26660   0.15120   0.66040   Biso      1.000     C          -0.231944           
         C50       1.0000    0.24730   0.20400   0.60830   Biso      1.000     C          -0.082359           
         C51       1.0000    0.28860   0.55580   0.51440   Biso      1.000     C          0.604796  
         C52       1.0000    0.49490   0.14860   0.81720   Biso      1.000     C          -0.067199           
         C53       1.0000    0.40880   0.98200   0.82550   Biso      1.000     C          -0.063109           
         C54       1.0000    0.25870   0.15960   0.17470   Biso      1.000     C          -0.081264           
         C55       1.0000    0.40820   0.12920   0.93840   Biso      1.000     C          -0.075066           
         C56       1.0000    0.47770   0.09230   0.87970   Biso      1.000     C          0.069505  
         C57       1.0000    0.86620   0.39910   0.19220   Biso      1.000     C          -0.06781  
         C58       1.0000    0.32380   0.78180   0.70780   Biso      1.000     C          -0.252837           
         C59       1.0000    0.74130   0.84040   0.82530   Biso      1.000     C          -0.08128  
         C60       1.0000    0.52230   0.90770   0.12030   Biso      1.000     C          0.069477  
         C61       1.0000    0.59180   0.87080   0.06160   Biso      1.000     C          -0.075074           
         C62       1.0000    0.21570   0.64580   0.88910   Biso      1.000     C          -0.208523           
         C63       1.0000    0.46890   0.25060   0.70880   Biso      1.000     C          -0.246976           
         C64       1.0000    0.98570   0.60710   0.68300   Biso      1.000     C          0.614067  
         C65       1.0000    0.65270   0.75380   0.76550   Biso      1.000     C          -0.032357           
         C66       1.0000    0.66750   0.69360   0.67980   Biso      1.000     C          0.610211  
         Cu1       1.0000    0.00000   0.50000   0.50000   Biso      1.000     Cu          0.709058  
         Cu2       1.0000    0.80860   0.62928   0.57839   Biso      1.000     Cu          0.923799  
         Cu3       1.0000    0.19140   0.37072   0.42161   Biso      1.000     Cu          0.923817  
         H1        1.0000    0.53870   0.28410   0.47390   Biso      1.000     H          0.113116  
         H2        1.0000    0.46600   0.11770   0.37110   Biso      1.000     H          0.140411  
         H3        1.0000    0.78110   0.36320   0.34800   Biso      1.000     H          0.101181  
         H4        1.0000    0.48650   0.66850   0.74000   Biso      1.000     H          0.116181  
         H5        1.0000    0.46200   0.75240   0.87490   Biso      1.000     H          0.120807  
         H6        1.0000    0.36180   0.91570   0.10190   Biso      1.000     H          0.094472  
         H7        1.0000    0.41600   0.91960   0.02010   Biso      1.000     H          0.084286  
         H8        1.0000    0.11390   0.53350   0.77100   Biso      1.000     H          0.126867  
         H9        1.0000    0.78630   0.95110   0.94430   Biso      1.000     H          0.120066  
         H10       1.0000    0.22040   0.86860   0.95220   Biso      1.000     H          0.131051  
         H11       1.0000    0.82960   0.81360   0.42630   Biso      1.000     H          0.119932  
         H12       1.0000    0.45340   0.86910   0.21850   Biso      1.000     H          0.098257  
         H13       1.0000    0.46850   0.77890   0.14710   Biso      1.000     H          0.092061  
         H14       1.0000    0.67300   0.03200   0.20340   Biso      1.000     H          0.097625  
         H15       1.0000    0.59200   0.05510   0.13530   Biso      1.000     H          0.093326  
         H16       1.0000    0.81440   0.86480   0.81340   Biso      1.000     H          0.1175    
         H17       1.0000    0.66830   0.88330   0.09970   Biso      1.000     H          0.092653  
         H18       1.0000    0.54930   0.79820   0.02720   Biso      1.000     H          0.099663  
         H19       1.0000    0.24850   0.60770   0.91080   Biso      1.000     H          0.129682  
         H20       1.0000    0.48500   0.64740   0.34580   Biso      1.000     H          0.120933  
         H21       1.0000    0.79780   0.90270   0.34010   Biso      1.000     H          0.131501  
         H22       1.0000    0.45410   0.73280   0.25750   Biso      1.000     H          0.127671  
         H23       1.0000    0.06270   0.77880   0.80580   Biso      1.000     H          0.125557  
         H24       1.0000    0.93730   0.22120   0.19420   Biso      1.000     H          0.125616  
         H25       1.0000    0.54590   0.26720   0.74250   Biso      1.000     H          0.127678  
         H26       1.0000    0.28820   0.79660   0.75440   Biso      1.000     H          0.111146  
         H27       1.0000    0.51500   0.35260   0.65420   Biso      1.000     H          0.120938  
         H28       1.0000    0.46130   0.71590   0.52610   Biso      1.000     H          0.113117  
         H29       1.0000    0.53400   0.88230   0.62890   Biso      1.000     H          0.140404  
         H30       1.0000    0.21890   0.63680   0.65200   Biso      1.000     H          0.101182  
         H31       1.0000    0.51350   0.33150   0.26000   Biso      1.000     H          0.11618   
         H32       1.0000    0.53800   0.24760   0.12510   Biso      1.000     H          0.120812  
         H33       1.0000    0.63820   0.08430   0.89810   Biso      1.000     H          0.09448   
         H34       1.0000    0.58400   0.08040   0.97990   Biso      1.000     H          0.084248  
         H35       1.0000    0.88610   0.46650   0.22900   Biso      1.000     H          0.126865  
         H36       1.0000    0.21370   0.04890   0.05570   Biso      1.000     H          0.120059  
         H37       1.0000    0.77960   0.13140   0.04780   Biso      1.000     H          0.132259  
         H38       1.0000    0.20220   0.09730   0.65990   Biso      1.000     H          0.131506  
         H39       1.0000    0.17040   0.18640   0.57370   Biso      1.000     H          0.119937  
         H40       1.0000    0.54660   0.13090   0.78150   Biso      1.000     H          0.098267  
         H41       1.0000    0.53150   0.22110   0.85290   Biso      1.000     H          0.09207   
         H42       1.0000    0.32700   0.96800   0.79660   Biso      1.000     H          0.097621  
         H43       1.0000    0.40800   0.94490   0.86470   Biso      1.000     H          0.093313  
         H44       1.0000    0.18560   0.13520   0.18660   Biso      1.000     H          0.117504  
         H45       1.0000    0.33170   0.11670   0.90030   Biso      1.000     H          0.092654  
         H46       1.0000    0.45070   0.20180   0.97280   Biso      1.000     H          0.099671  
         H47       1.0000    0.71180   0.20340   0.24560   Biso      1.000     H          0.111169  
         H48       1.0000    0.75150   0.39230   0.08920   Biso      1.000     H          0.12969   
         Mn1       1.0000    0.50000   0.50000   0.50000   Biso      1.000     Mn          1.214701  
         O1        1.0000    0.65100   0.46580   0.53640   Biso      1.000     O          -0.607022           
         O2        1.0000    0.46510   0.95320   0.75930   Biso      1.000     O          -0.17815  
         O3        1.0000    0.38280   0.12100   0.75960   Biso      1.000     O          -0.194582           
         O4        1.0000    0.22200   0.31230   0.50510   Biso      1.000     O          -0.541568           
         O5        1.0000    0.99290   0.46870   0.37290   Biso      1.000     O          -0.627702           
         O6        1.0000    0.41000   0.41260   0.56290   Biso      1.000     O          -0.566727           
         O7        1.0000    0.23120   0.28390   0.33000   Biso      1.000     O          -0.536794           
         O8        1.0000    0.42360   0.37990   0.37400   Biso      1.000     O          -0.557421           
         O9        1.0000    0.07540   0.35910   0.32410   Biso      1.000     O          -0.4325   
         O10       1.0000    0.65720   0.21670   0.98230   Biso      1.000     O          -0.223188           
         O11       1.0000    0.34900   0.53420   0.46360   Biso      1.000     O          -0.607022           
         O12       1.0000    0.61050   0.91940   0.00100   Biso      1.000     O          -0.233623           
         O13       1.0000    0.80520   0.50640   0.48620   Biso      1.000     O          -0.553488           
         O14       1.0000    0.53490   0.04680   0.24070   Biso      1.000     O          -0.178166           
         O15       1.0000    0.61720   0.87900   0.24040   Biso      1.000     O          -0.194586           
         O16       1.0000    0.77800   0.68770   0.49490   Biso      1.000     O          -0.541565           
         O17       1.0000    0.00710   0.53130   0.62710   Biso      1.000     O          -0.627705           
         O18       1.0000    0.59000   0.58740   0.43710   Biso      1.000     O          -0.566728           
         O19       1.0000    0.76880   0.71610   0.67000   Biso      1.000     O          -0.536792           
         O20       1.0000    0.57640   0.62010   0.62600   Biso      1.000     O          -0.557423           
         O21       1.0000    0.92460   0.64090   0.67590   Biso      1.000     O          -0.43251  
         O22       1.0000    0.34280   0.78330   0.01770   Biso      1.000     O          -0.22331  
         O23       1.0000    0.19480   0.49360   0.51380   Biso      1.000     O          -0.553489           
         O24       1.0000    0.38950   0.08060   0.99900   Biso      1.000     O          -0.233596 