
##########################################################################
#               Crystallographic Information Format file
#               Produced by PyCifRW module
#
#  This is a CIF file.  CIF has been adopted by the International
#  Union of Crystallography as the standard for data archiving and
#  transmission.
#
#  For information on this file format, follow the CIF links at
#  http://www.iucr.org
##########################################################################

data_image0

_cell_length_a                          13.4319
_cell_length_b                          16.216
_cell_length_c                          16.2911
_cell_angle_alpha                       108.099
_cell_angle_beta                        102.652
_cell_angle_gamma                       106.188
_symmetry_space_group_name_H-M          'P 1'
_symmetry_int_tables_number             1
loop_
  _symmetry_equiv_pos_as_xyz
         'x, y, z' 
loop_
  _atom_site_label
  _atom_site_occupancy
  _atom_site_fract_x
  _atom_site_fract_y
  _atom_site_fract_z
  _atom_site_thermal_displace_type
  _atom_site_B_iso_or_equiv
  _atom_site_type_symbol
  _atom_site_charge
         C1        1.0000    0.45950   0.80790   0.63440   Biso      1.000     C          -0.219149           
         C2        1.0000    0.27270   0.14970   0.63490   Biso      1.000     C          -0.222741           
         C3        1.0000    0.87580   0.33990   0.16300   Biso      1.000     C          -0.074685           
         C4        1.0000    0.78030   0.30270   0.08800   Biso      1.000     C          -0.22011  
         C5        1.0000    0.28490   0.20520   0.14940   Biso      1.000     C          -0.082889           
         C6        1.0000    0.39350   0.96940   0.80460   Biso      1.000     C          -0.059144           
         C7        1.0000    0.35240   0.26210   0.57790   Biso      1.000     C          -0.067617           
         C8        1.0000    0.34000   0.32270   0.52630   Biso      1.000     C          0.61012   
         C9        1.0000    0.28630   0.55210   0.51610   Biso      1.000     C          0.585598  
         C10       1.0000    0.37810   0.27690   0.21570   Biso      1.000     C          -0.04509  
         C11       1.0000    0.91370   0.27990   0.19400   Biso      1.000     C          -0.053578           
         C12       1.0000    0.01770   0.32000   0.27480   Biso      1.000     C          0.55577   
         C13       1.0000    0.25970   0.20260   0.58430   Biso      1.000     C          -0.07951  
         C14       1.0000    0.85690   0.18540   0.14820   Biso      1.000     C          -0.075824           
         C15       1.0000    0.42110   0.71570   0.57670   Biso      1.000     C          -0.067041           
         C16       1.0000    0.40230   0.83930   0.69100   Biso      1.000     C          0.287856  
         C17       1.0000    0.76400   0.14820   0.07190   Biso      1.000     C          -0.249566           
         C18       1.0000    0.30630   0.77770   0.68850   Biso      1.000     C          -0.238044           
         C19       1.0000    0.48270   0.12140   0.79380   Biso      1.000     C          -0.06801  
         C20       1.0000    0.57160   0.08400   0.91930   Biso      1.000     C          -0.068758           
         C21       1.0000    0.45420   0.26580   0.62230   Biso      1.000     C          -0.063192           
         C22       1.0000    0.46290   0.07280   0.85800   Biso      1.000     C          0.074767  
         C23       1.0000    0.26860   0.68420   0.63140   Biso      1.000     C          -0.054621           
         C24       1.0000    0.32590   0.65150   0.57450   Biso      1.000     C          -0.072047           
         C25       1.0000    0.72550   0.20870   0.04240   Biso      1.000     C          0.278282  
         C26       1.0000    0.12420   0.66010   0.83700   Biso      1.000     C          -0.079145           
         C27       1.0000    0.63110   0.65490   0.70030   Biso      1.000     C          0.63144   
         C28       1.0000    0.59600   0.87970   0.08540   Biso      1.000     C          -0.06689  
         C29       1.0000    0.52500   0.71770   0.79520   Biso      1.000     C          -0.077793           
         C30       1.0000    0.60650   0.03060   0.19540   Biso      1.000     C          -0.059053           
         C31       1.0000    0.64760   0.73790   0.42210   Biso      1.000     C          -0.065937           
         C32       1.0000    0.66000   0.67730   0.47370   Biso      1.000     C          0.61327   
         C33       1.0000    0.71370   0.44790   0.48390   Biso      1.000     C          0.595181  
         C34       1.0000    0.62190   0.72310   0.78430   Biso      1.000     C          -0.042811           
         C35       1.0000    0.08630   0.72010   0.80600   Biso      1.000     C          -0.049233           
         C36       1.0000    0.98230   0.68000   0.72520   Biso      1.000     C          0.55944   
         C37       1.0000    0.14310   0.81460   0.85180   Biso      1.000     C          -0.078075           
         C38       1.0000    0.54050   0.19210   0.36560   Biso      1.000     C          -0.223346           
         C39       1.0000    0.57890   0.28430   0.42330   Biso      1.000     C          -0.070356           
         C40       1.0000    0.59770   0.16070   0.30900   Biso      1.000     C          0.2853    
         C41       1.0000    0.23600   0.85180   0.92810   Biso      1.000     C          -0.255218           
         C42       1.0000    0.69370   0.22230   0.31150   Biso      1.000     C          -0.244535           
         C43       1.0000    0.51730   0.87860   0.20620   Biso      1.000     C          -0.065264           
         C44       1.0000    0.42840   0.91600   0.08070   Biso      1.000     C          -0.068336           
         C45       1.0000    0.54580   0.73420   0.37770   Biso      1.000     C          -0.067167           
         C46       1.0000    0.53710   0.92720   0.14200   Biso      1.000     C          0.074637  
         C47       1.0000    0.73140   0.31580   0.36860   Biso      1.000     C          -0.060212           
         C48       1.0000    0.67410   0.34850   0.42550   Biso      1.000     C          -0.065433           
         C49       1.0000    0.27450   0.79130   0.95760   Biso      1.000     C          0.274998  
         C50       1.0000    0.62510   0.84230   0.31820   Biso      1.000     C          0.281683  
         C51       1.0000    0.53320   0.78570   0.32600   Biso      1.000     C          -0.242242           
         C52       1.0000    0.71010   0.85700   0.92740   Biso      1.000     C          -0.220448           
         C53       1.0000    0.61150   0.85110   0.93880   Biso      1.000     C          0.272918  
         C54       1.0000    0.51810   0.78160   0.87360   Biso      1.000     C          -0.224735           
         C55       1.0000    0.37490   0.15770   0.68180   Biso      1.000     C          0.28171   
         C56       1.0000    0.46680   0.21430   0.67400   Biso      1.000     C          -0.241239           
         C57       1.0000    0.28990   0.14300   0.07260   Biso      1.000     C          -0.217368           
         C58       1.0000    0.38850   0.14890   0.06120   Biso      1.000     C          0.274958  
         C59       1.0000    0.74030   0.79740   0.41570   Biso      1.000     C          -0.078095           
         C60       1.0000    0.72730   0.85030   0.36510   Biso      1.000     C          -0.223661           
         C61       1.0000    0.71510   0.79480   0.85060   Biso      1.000     C          -0.080864           
         C62       1.0000    0.21970   0.69730   0.91200   Biso      1.000     C          -0.224559           
         C63       1.0000    0.36890   0.34510   0.29970   Biso      1.000     C          0.62811   
         C64       1.0000    0.48190   0.21840   0.12640   Biso      1.000     C          -0.222669           
         C65       1.0000    0.47500   0.28230   0.20480   Biso      1.000     C          -0.073222           
         C66       1.0000    0.40400   0.12030   0.91460   Biso      1.000     C          -0.067246           
         H1        1.0000    0.21550   0.19890   0.15710   Biso      1.000     H          0.114762  
         H2        1.0000    0.38620   0.93740   0.84710   Biso      1.000     H          0.091956  
         H3        1.0000    0.31910   0.96060   0.76830   Biso      1.000     H          0.100001  
         H4        1.0000    0.88230   0.14420   0.16960   Biso      1.000     H          0.115339  
         H5        1.0000    0.52530   0.85070   0.63570   Biso      1.000     H          0.136798  
         H6        1.0000    0.46010   0.69520   0.53760   Biso      1.000     H          0.111747  
         H7        1.0000    0.72690   0.08240   0.04010   Biso      1.000     H          0.123594  
         H8        1.0000    0.26620   0.79930   0.72590   Biso      1.000     H          0.122323  
         H9        1.0000    0.52500   0.18920   0.82940   Biso      1.000     H          0.094258  
         H10       1.0000    0.81170   0.80150   0.44580   Biso      1.000     H          0.124668  
         H11       1.0000    0.75260   0.34370   0.06820   Biso      1.000     H          0.136201  
         H12       1.0000    0.61100   0.05420   0.88220   Biso      1.000     H          0.09864   
         H13       1.0000    0.51770   0.30510   0.61720   Biso      1.000     H          0.121683  
         H14       1.0000    0.20310   0.64160   0.63060   Biso      1.000     H          0.122599  
         H15       1.0000    0.53790   0.21770   0.70390   Biso      1.000     H          0.130159  
         H16       1.0000    0.22410   0.09540   0.02720   Biso      1.000     H          0.130325  
         H17       1.0000    0.55140   0.22390   0.11910   Biso      1.000     H          0.123767  
         H18       1.0000    0.54050   0.32990   0.25060   Biso      1.000     H          0.113107  
         H19       1.0000    0.44550   0.18880   0.94310   Biso      1.000     H          0.096506  
         H20       1.0000    0.32980   0.10800   0.87460   Biso      1.000     H          0.096225  
         H21       1.0000    0.52530   0.09540   0.75750   Biso      1.000     H          0.095384  
         H22       1.0000    0.55980   0.05370   0.96240   Biso      1.000     H          0.088649  
         H23       1.0000    0.20950   0.10700   0.63710   Biso      1.000     H          0.134565  
         H24       1.0000    0.18830   0.19850   0.55420   Biso      1.000     H          0.124084  
         H25       1.0000    0.79050   0.89300   0.36290   Biso      1.000     H          0.133955  
         H26       1.0000    0.08520   0.59430   0.80730   Biso      1.000     H          0.123784  
         H27       1.0000    0.24740   0.65630   0.93180   Biso      1.000     H          0.133813  
         H28       1.0000    0.78450   0.80110   0.84290   Biso      1.000     H          0.116024  
         H29       1.0000    0.61380   0.06260   0.15290   Biso      1.000     H          0.090093  
         H30       1.0000    0.68090   0.03940   0.23170   Biso      1.000     H          0.098136  
         H31       1.0000    0.11770   0.85580   0.83040   Biso      1.000     H          0.114122  
         H32       1.0000    0.47470   0.14930   0.36430   Biso      1.000     H          0.134781  
         H33       1.0000    0.53990   0.30480   0.46240   Biso      1.000     H          0.110923  
         H34       1.0000    0.27310   0.91760   0.95990   Biso      1.000     H          0.121177  
         H35       1.0000    0.91480   0.40570   0.19270   Biso      1.000     H          0.125203  
         H36       1.0000    0.73380   0.20070   0.27410   Biso      1.000     H          0.118694  
         H37       1.0000    0.47470   0.90460   0.24250   Biso      1.000     H          0.095208  
         H38       1.0000    0.44020   0.94630   0.03760   Biso      1.000     H          0.087385  
         H39       1.0000    0.38900   0.94580   0.11780   Biso      1.000     H          0.097511  
         H40       1.0000    0.48230   0.69490   0.38280   Biso      1.000     H          0.119322  
         H41       1.0000    0.79690   0.35840   0.36940   Biso      1.000     H          0.119997  
         H42       1.0000    0.46210   0.78230   0.29610   Biso      1.000     H          0.129553  
         H43       1.0000    0.77590   0.90460   0.97280   Biso      1.000     H          0.128743  
         H44       1.0000    0.44860   0.77610   0.88090   Biso      1.000     H          0.123629  
         H45       1.0000    0.45950   0.67010   0.74940   Biso      1.000     H          0.111019  
         H46       1.0000    0.55450   0.81120   0.05690   Biso      1.000     H          0.096968  
         H47       1.0000    0.47500   0.81080   0.17060   Biso      1.000     H          0.092821  
         H48       1.0000    0.67020   0.89200   0.12540   Biso      1.000     H          0.095026  
         Mn1       1.0000    0.20488   0.37799   0.39936   Biso      1.000     Mn          1.019906  
         Mn2       1.0000    0.50000   0.50000   0.50000   Biso      1.000     Mn          1.15674   
         Mn3       1.0000    0.79512   0.62201   0.60064   Biso      1.000     Mn          1.104883  
         O1        1.0000    0.96180   0.73120   0.68537   Biso      1.000     O          -0.534228           
         O2        1.0000    0.57430   0.61737   0.46817   Biso      1.000     O          -0.565393           
         O3        1.0000    0.65880   0.47834   0.53302   Biso      1.000     O          -0.606093           
         O4        1.0000    0.72410   0.66860   0.69599   Biso      1.000     O          -0.539944           
         O5        1.0000    0.80340   0.50394   0.49016   Biso      1.000     O          -0.507678           
         O6        1.0000    0.62230   0.89393   0.26574   Biso      1.000     O          -0.206243           
         O7        1.0000    0.55170   0.06821   0.25455   Biso      1.000     O          -0.196269           
         O8        1.0000    0.60590   0.91491   0.01401   Biso      1.000     O          -0.252398           
         O9        1.0000    0.36520   0.81839   0.03119   Biso      1.000     O          -0.202259           
         O10       1.0000    0.54360   0.59206   0.64175   Biso      1.000     O          -0.559814           
         O11       1.0000    0.24300   0.30890   0.48304   Biso      1.000     O          -0.484501           
         O12       1.0000    0.08420   0.40280   0.29838   Biso      1.000     O          -0.469541           
         O13       1.0000    0.03820   0.26880   0.31463   Biso      1.000     O          -0.473836           
         O14       1.0000    0.42570   0.38263   0.53183   Biso      1.000     O          -0.562318           
         O15       1.0000    0.34120   0.52166   0.46698   Biso      1.000     O          -0.545191           
         O16       1.0000    0.27590   0.33140   0.30401   Biso      1.000     O          -0.50541  
         O17       1.0000    0.19660   0.49606   0.50984   Biso      1.000     O          -0.460796           
         O18       1.0000    0.37770   0.10607   0.73426   Biso      1.000     O          -0.205484           
         O19       1.0000    0.44830   0.93179   0.74545   Biso      1.000     O          -0.194019           
         O20       1.0000    0.39410   0.08509   0.98599   Biso      1.000     O          -0.250057           
         O21       1.0000    0.63480   0.18161   0.96881   Biso      1.000     O          -0.199519           
         O22       1.0000    0.45640   0.40794   0.35825   Biso      1.000     O          -0.549915           
         O23       1.0000    0.91580   0.59720   0.70162   Biso      1.000     O          -0.499865           
         O24       1.0000    0.75700   0.69110   0.51696   Biso      1.000     O          -0.505257 