
##########################################################################
#               Crystallographic Information Format file
#               Produced by PyCifRW module
#
#  This is a CIF file.  CIF has been adopted by the International
#  Union of Crystallography as the standard for data archiving and
#  transmission.
#
#  For information on this file format, follow the CIF links at
#  http://www.iucr.org
##########################################################################

data_image0

_cell_length_a                          13.049
_cell_length_b                          13.9009
_cell_length_c                          13.9009
_cell_angle_alpha                       90
_cell_angle_beta                        90
_cell_angle_gamma                       90
_symmetry_space_group_name_H-M          'P 1'
_symmetry_int_tables_number             1
loop_
  _symmetry_equiv_pos_as_xyz
         'x, y, z' 
loop_
  _atom_site_label
  _atom_site_occupancy
  _atom_site_fract_x
  _atom_site_fract_y
  _atom_site_fract_z
  _atom_site_thermal_displace_type
  _atom_site_B_iso_or_equiv
  _atom_site_type_symbol
  _atom_site_charge
         C1        1.0000    0.38930   0.32820   0.82690   Biso      1.000     C          -0.132022           
         C2        1.0000    0.38930   0.67180   0.17310   Biso      1.000     C          -0.132022           
         C3        1.0000    0.29730   0.63620   0.13710   Biso      1.000     C          0.10939000000000002           
         C4        1.0000    0.38770   0.53720   0.03770   Biso      1.000     C          0.228925  
         C5        1.0000    0.59810   0.08160   0.83520   Biso      1.000     C          0.637939  
         C6        1.0000    0.60070   0.33470   0.57850   Biso      1.000     C          0.625839  
         C7        1.0000    0.65670   0.16540   0.78840   Biso      1.000     C          0.305429  
         C8        1.0000    0.47870   0.63620   0.13650   Biso      1.000     C          0.125282  
         C9        1.0000    0.61420   0.20870   0.70750   Biso      1.000     C          -0.396658           
         C10       1.0000    0.71430   0.42790   0.93330   Biso      1.000     C          0.163939  
         C11       1.0000    0.37710   0.89630   0.39760   Biso      1.000     C          -0.07242  
         C12       1.0000    0.93340   0.07480   0.42610   Biso      1.000     C          0.158615  
         C13       1.0000    0.84170   0.10120   0.60550   Biso      1.000     C          0.11113699999999999           
         C14       1.0000    0.52130   0.13650   0.36380   Biso      1.000     C          0.125273  
         C15       1.0000    0.61070   0.17310   0.32820   Biso      1.000     C          -0.13201300000000002          
         C16       1.0000    0.65990   0.28800   0.66350   Biso      1.000     C          0.305471  
         C17       1.0000    0.15830   0.39450   0.10120   Biso      1.000     C          0.11113699999999999           
         C18       1.0000    0.06660   0.57390   0.07480   Biso      1.000     C          0.158614  
         C19       1.0000    0.62290   0.60240   0.89630   Biso      1.000     C          -0.072421           
         C20       1.0000    0.34010   0.66350   0.71200   Biso      1.000     C          0.305471  
         C21       1.0000    0.28570   0.93330   0.57210   Biso      1.000     C          0.163939  
         C22       1.0000    0.62290   0.39760   0.10370   Biso      1.000     C          -0.07242  
         C23       1.0000    0.06660   0.42610   0.92520   Biso      1.000     C          0.158615  
         C24       1.0000    0.15830   0.60550   0.89880   Biso      1.000     C          0.11113699999999999           
         C25       1.0000    0.47870   0.36380   0.86350   Biso      1.000     C          0.125282  
         C26       1.0000    0.39930   0.57850   0.66530   Biso      1.000     C          0.625839  
         C27       1.0000    0.29730   0.36380   0.86290   Biso      1.000     C          0.10939000000000002           
         C28       1.0000    0.38770   0.46280   0.96230   Biso      1.000     C          0.228925  
         C29       1.0000    0.40190   0.16480   0.08160   Biso      1.000     C          0.637939  
         C30       1.0000    0.39930   0.42150   0.33470   Biso      1.000     C          0.625839  
         C31       1.0000    0.34330   0.21160   0.16540   Biso      1.000     C          0.305429  
         C32       1.0000    0.38580   0.29250   0.20870   Biso      1.000     C          -0.396658           
         C33       1.0000    0.34010   0.33650   0.28800   Biso      1.000     C          0.305471  
         C34       1.0000    0.28570   0.06670   0.42790   Biso      1.000     C          0.163939  
         C35       1.0000    0.70270   0.13710   0.36380   Biso      1.000     C          0.10938900000000001           
         C36       1.0000    0.61230   0.03770   0.46280   Biso      1.000     C          0.228925  
         C37       1.0000    0.59810   0.91840   0.16480   Biso      1.000     C          0.637939  
         C38       1.0000    0.60070   0.66530   0.42150   Biso      1.000     C          0.625839  
         C39       1.0000    0.38580   0.70750   0.79130   Biso      1.000     C          -0.396658           
         C40       1.0000    0.40190   0.83520   0.91840   Biso      1.000     C          0.637939  
         C41       1.0000    0.61230   0.96230   0.53720   Biso      1.000     C          0.228925  
         C42       1.0000    0.70270   0.86290   0.63620   Biso      1.000     C          0.10939000000000002           
         C43       1.0000    0.61070   0.82690   0.67180   Biso      1.000     C          -0.132022           
         C44       1.0000    0.52130   0.86350   0.63620   Biso      1.000     C          0.125282  
         C45       1.0000    0.34330   0.78840   0.83460   Biso      1.000     C          0.305429  
         C46       1.0000    0.93340   0.92520   0.57390   Biso      1.000     C          0.158615  
         C47       1.0000    0.37710   0.10370   0.60240   Biso      1.000     C          -0.07242  
         C48       1.0000    0.71430   0.57210   0.06670   Biso      1.000     C          0.163939  
         C49       1.0000    0.65990   0.71200   0.33650   Biso      1.000     C          0.305471  
         C50       1.0000    0.61420   0.79130   0.29250   Biso      1.000     C          -0.396658           
         C51       1.0000    0.84170   0.89880   0.39450   Biso      1.000     C          0.11113699999999999           
         C52       1.0000    0.65670   0.83460   0.21160   Biso      1.000     C          0.305429  
         F1        1.0000    0.41370   0.41540   0.42880   Biso      1.000     F          -0.184847           
         F2        1.0000    0.49370   0.13510   0.11620   Biso      1.000     F          -0.22652600000000003          
         F3        1.0000    0.35510   0.09910   0.04200   Biso      1.000     F          -0.130457           
         F4        1.0000    0.33820   0.49670   0.66370   Biso      1.000     F          -0.269924           
         F5        1.0000    0.47820   0.45270   0.28690   Biso      1.000     F          -0.15970499999999999          
         F6        1.0000    0.47820   0.54730   0.71310   Biso      1.000     F          -0.15970499999999999          
         F7        1.0000    0.41370   0.58460   0.57120   Biso      1.000     F          -0.184847           
         F8        1.0000    0.49370   0.86490   0.88380   Biso      1.000     F          -0.22652600000000003          
         F9        1.0000    0.42610   0.23380   0.01710   Biso      1.000     F          -0.221318           
         F10       1.0000    0.33820   0.50330   0.33630   Biso      1.000     F          -0.269924           
         F11       1.0000    0.50630   0.11620   0.86490   Biso      1.000     F          -0.22652600000000003          
         F12       1.0000    0.64490   0.04200   0.90090   Biso      1.000     F          -0.130457           
         F13       1.0000    0.58630   0.42880   0.58460   Biso      1.000     F          -0.184847           
         F14       1.0000    0.52180   0.28690   0.54730   Biso      1.000     F          -0.15970499999999999          
         F15       1.0000    0.66180   0.33630   0.49670   Biso      1.000     F          -0.269925           
         F16       1.0000    0.64490   0.95800   0.09910   Biso      1.000     F          -0.130457           
         F17       1.0000    0.50630   0.88380   0.13510   Biso      1.000     F          -0.22652600000000003          
         F18       1.0000    0.58630   0.57120   0.41540   Biso      1.000     F          -0.184847           
         F19       1.0000    0.52180   0.71310   0.45270   Biso      1.000     F          -0.15970499999999999          
         F20       1.0000    0.66180   0.66370   0.50330   Biso      1.000     F          -0.269924           
         F21       1.0000    0.57390   0.01710   0.76620   Biso      1.000     F          -0.221318           
         F22       1.0000    0.57390   0.98290   0.23380   Biso      1.000     F          -0.221318           
         F23       1.0000    0.42610   0.76620   0.98290   Biso      1.000     F          -0.221318           
         F24       1.0000    0.35510   0.90090   0.95800   Biso      1.000     F          -0.130457           
         Gd1       1.0000    0.88382   0.71308   0.21307   Biso      1.000     Gd          2.030745  
         Gd2       1.0000    0.11618   0.21307   0.28692   Biso      1.000     Gd          2.0307459999999997  
         Gd3       1.0000    0.11618   0.78693   0.71308   Biso      1.000     Gd          2.0307459999999997  
         Gd4       1.0000    0.88382   0.28692   0.78693   Biso      1.000     Gd          2.0307459999999997  
         H1        1.0000    0.76590   0.83890   0.66030   Biso      1.000     H          0.10523699999999998           
         H2        1.0000    0.61020   0.77810   0.71960   Biso      1.000     H          0.144522  
         H3        1.0000    0.45820   0.83990   0.66090   Biso      1.000     H          0.098355  
         H4        1.0000    0.55240   0.81650   0.31850   Biso      1.000     H          0.162064  
         H5        1.0000    0.76590   0.16110   0.33970   Biso      1.000     H          0.10523699999999998           
         H6        1.0000    0.61020   0.22190   0.28040   Biso      1.000     H          0.144521  
         H7        1.0000    0.44760   0.68150   0.81650   Biso      1.000     H          0.162064  
         H8        1.0000    0.54180   0.33910   0.83990   Biso      1.000     H          0.098355  
         H9        1.0000    0.38980   0.28040   0.77810   Biso      1.000     H          0.144522  
         H10       1.0000    0.23410   0.33970   0.83890   Biso      1.000     H          0.10523699999999998           
         H11       1.0000    0.44760   0.31850   0.18350   Biso      1.000     H          0.162064  
         H12       1.0000    0.54180   0.66090   0.16010   Biso      1.000     H          0.098355  
         H13       1.0000    0.38980   0.71960   0.22190   Biso      1.000     H          0.144522  
         H14       1.0000    0.45820   0.16010   0.33910   Biso      1.000     H          0.098356  
         H15       1.0000    0.23410   0.66030   0.16110   Biso      1.000     H          0.10523699999999998           
         H16       1.0000    0.55240   0.18350   0.68150   Biso      1.000     H          0.162064  
         N1        1.0000    0.22390   0.89410   0.61680   Biso      1.000     N          -0.588897           
         N2        1.0000    0.70300   0.93110   0.56810   Biso      1.000     N          -0.179313           
         N3        1.0000    0.51920   0.93170   0.56740   Biso      1.000     N          -0.176745           
         N4        1.0000    0.77610   0.61680   0.10590   Biso      1.000     N          -0.5888979999999999           
         N5        1.0000    0.85950   0.84460   0.33530   Biso      1.000     N          -0.598755           
         N6        1.0000    0.99020   0.88250   0.62000   Biso      1.000     N          -0.650505           
         N7        1.0000    0.35650   0.15890   0.66150   Biso      1.000     N          -0.423804           
         N8        1.0000    0.70300   0.06890   0.43190   Biso      1.000     N          -0.179313           
         N9        1.0000    0.51920   0.06830   0.43260   Biso      1.000     N          -0.176744           
         N10       1.0000    0.77610   0.38320   0.89410   Biso      1.000     N          -0.5888979999999999           
         N11       1.0000    0.85950   0.15540   0.66470   Biso      1.000     N          -0.598755           
         N12       1.0000    0.99020   0.11750   0.38000   Biso      1.000     N          -0.650505           
         N13       1.0000    0.35650   0.84110   0.33850   Biso      1.000     N          -0.423804           
         N14       1.0000    0.29700   0.56810   0.06890   Biso      1.000     N          -0.179313           
         N15       1.0000    0.48080   0.56740   0.06830   Biso      1.000     N          -0.17674600000000001          
         N16       1.0000    0.22390   0.10590   0.38320   Biso      1.000     N          -0.588897           
         N17       1.0000    0.14050   0.33530   0.15540   Biso      1.000     N          -0.598755           
         N18       1.0000    0.00980   0.62000   0.11750   Biso      1.000     N          -0.650505           
         N19       1.0000    0.64350   0.66150   0.84110   Biso      1.000     N          -0.423804           
         N20       1.0000    0.64350   0.33850   0.15890   Biso      1.000     N          -0.423804           
         N21       1.0000    0.00980   0.38000   0.88250   Biso      1.000     N          -0.650505           
         N22       1.0000    0.29700   0.43190   0.93110   Biso      1.000     N          -0.179313           
         N23       1.0000    0.48080   0.43260   0.93170   Biso      1.000     N          -0.17674600000000001          
         N24       1.0000    0.14050   0.66470   0.84460   Biso      1.000     N          -0.598755           
         O1        1.0000    0.73940   0.18580   0.83050   Biso      1.000     O          -0.5430010000000001           
         O2        1.0000    0.26060   0.83050   0.81420   Biso      1.000     O          -0.5430010000000001           
         O3        1.0000    0.25870   0.68450   0.66830   Biso      1.000     O          -0.5451630000000001           
         O4        1.0000    0.26060   0.16950   0.18580   Biso      1.000     O          -0.5430010000000001           
         O5        1.0000    0.25870   0.31550   0.33170   Biso      1.000     O          -0.5451630000000001           
         O6        1.0000    0.74130   0.33170   0.68450   Biso      1.000     O          -0.5451630000000001           
         O7        1.0000    0.73940   0.81420   0.16950   Biso      1.000     O          -0.5430010000000001           
         O8        1.0000    0.74130   0.66830   0.31550   Biso      1.000     O          -0.5451630000000001           
         Ru1       1.0000    0.39232   0.00000   0.50000   Biso      1.000     Ru          0.23819200000000001           
         Ru2       1.0000    0.16970   0.50000   0.00000   Biso      1.000     Ru          0.136155  
         Ru3       1.0000    0.83030   0.00000   0.50000   Biso      1.000     Ru          0.136151  
         Ru4       1.0000    0.60768   0.50000   0.00000   Biso      1.000     Ru          0.23819400000000002 