
##########################################################################
#               Crystallographic Information Format file
#               Produced by PyCifRW module
#
#  This is a CIF file.  CIF has been adopted by the International
#  Union of Crystallography as the standard for data archiving and
#  transmission.
#
#  For information on this file format, follow the CIF links at
#  http://www.iucr.org
##########################################################################

data_image0

_cell_length_a                          17.1193
_cell_length_b                          17.1193
_cell_length_c                          17.1193
_cell_angle_alpha                       98.2857
_cell_angle_beta                        115.337
_cell_angle_gamma                       115.337
_symmetry_space_group_name_H-M          'P 1'
_symmetry_int_tables_number             1
loop_
  _symmetry_equiv_pos_as_xyz
         'x, y, z' 
loop_
  _atom_site_label
  _atom_site_occupancy
  _atom_site_fract_x
  _atom_site_fract_y
  _atom_site_fract_z
  _atom_site_thermal_displace_type
  _atom_site_B_iso_or_equiv
  _atom_site_type_symbol
  _atom_site_charge
         C1        1.0000    0.25000   0.03147   0.34807   Biso      1.000     C          0.622197  
         C2        1.0000    0.42310   0.10495   0.25165   Biso      1.000     C          0.170877  
         C3        1.0000    0.37040   0.10493   0.29873   Biso      1.000     C          -0.12216  
         C4        1.0000    0.30270   0.02856   0.29886   Biso      1.000     C          -0.240213           
         C5        1.0000    0.80870   0.95738   0.97068   Biso      1.000     C          0.629687  
         C6        1.0000    0.31660   0.34807   0.59807   Biso      1.000     C          0.622193  
         C7        1.0000    0.27030   0.29886   0.49616   Biso      1.000     C          -0.240269           
         C8        1.0000    0.49900   0.17794   0.25234   Biso      1.000     C          -0.102807           
         C9        1.0000    0.19380   0.29873   0.42833   Biso      1.000     C          -0.122132           
         C10       1.0000    0.07440   0.25234   0.25334   Biso      1.000     C          -0.102805           
         C11       1.0000    0.11270   0.16408   0.19778   Biso      1.000     C          0.176732  
         C12       1.0000    0.30870   0.33802   0.85132   Biso      1.000     C          0.62971   
         C13       1.0000    0.01970   0.89843   0.10873   Biso      1.000     C          0.216725  
         C14       1.0000    0.91090   0.75142   0.01772   Biso      1.000     C          -0.097836           
         C15       1.0000    0.88450   0.76894   0.07964   Biso      1.000     C          0.164566  
         C16       1.0000    0.14670   0.25165   0.32855   Biso      1.000     C          0.170875  
         C17       1.0000    0.80200   0.70832   0.08812   Biso      1.000     C          -0.117347           
         C18       1.0000    0.46630   0.05138   0.16408   Biso      1.000     C          0.176748  
         C19       1.0000    0.91330   0.04423   0.26733   Biso      1.000     C          -0.258946           
         C20       1.0000    0.31070   0.07964   0.69514   Biso      1.000     C          0.16454   
         C21       1.0000    0.37980   0.08812   0.78612   Biso      1.000     C          -0.117334           
         C22       1.0000    0.41330   0.14597   0.86907   Biso      1.000     C          -0.258901           
         C23       1.0000    0.48670   0.14868   0.95738   Biso      1.000     C          0.629715  
         C24       1.0000    0.96630   0.80222   0.41492   Biso      1.000     C          0.176725  
         C25       1.0000    0.99900   0.74666   0.32106   Biso      1.000     C          -0.102804           
         C26       1.0000    0.98670   0.02932   0.33802   Biso      1.000     C          0.629735  
         C27       1.0000    0.92310   0.67145   0.31815   Biso      1.000     C          0.17088   
         C28       1.0000    0.80270   0.50384   0.27414   Biso      1.000     C          -0.240248           
         C29       1.0000    0.75000   0.40193   0.21853   Biso      1.000     C          0.62219   
         C30       1.0000    0.71030   0.12127   0.10157   Biso      1.000     C          0.2167    
         C31       1.0000    0.76630   0.15948   0.24858   Biso      1.000     C          -0.097827           
         C32       1.0000    0.81070   0.11556   0.23106   Biso      1.000     C          0.16458   
         C33       1.0000    0.87980   0.09368   0.29168   Biso      1.000     C          -0.117323           
         C34       1.0000    0.87040   0.57167   0.26547   Biso      1.000     C          -0.122127           
         C35       1.0000    0.26630   0.01772   0.60682   Biso      1.000     C          -0.09779  
         C36       1.0000    0.77690   0.73267   0.14597   Biso      1.000     C          -0.258914           
         C37       1.0000    0.88730   0.83592   0.80222   Biso      1.000     C          0.176732  
         C38       1.0000    0.19800   0.29168   0.91188   Biso      1.000     C          -0.117346           
         C39       1.0000    0.11550   0.23106   0.92036   Biso      1.000     C          0.164557  
         C40       1.0000    0.08910   0.24858   0.98228   Biso      1.000     C          -0.097826           
         C41       1.0000    0.98030   0.10157   0.89127   Biso      1.000     C          0.216725  
         C42       1.0000    0.81660   0.21853   0.96853   Biso      1.000     C          0.622188  
         C43       1.0000    0.77030   0.27414   0.97144   Biso      1.000     C          -0.24025  
         C44       1.0000    0.22310   0.26733   0.85403   Biso      1.000     C          -0.258914           
         C45       1.0000    0.69380   0.26547   0.89507   Biso      1.000     C          -0.122135           
         C46       1.0000    0.57440   0.32106   0.82206   Biso      1.000     C          -0.102837           
         C47       1.0000    0.48030   0.58903   0.87873   Biso      1.000     C          0.216724  
         C48       1.0000    0.58910   0.60682   0.84052   Biso      1.000     C          -0.097848           
         C49       1.0000    0.61550   0.69514   0.88444   Biso      1.000     C          0.164582  
         C50       1.0000    0.69800   0.78612   0.90632   Biso      1.000     C          -0.117342           
         C51       1.0000    0.72310   0.86907   0.95577   Biso      1.000     C          -0.258878           
         C52       1.0000    0.64670   0.31815   0.89505   Biso      1.000     C          0.170901  
         C53       1.0000    0.69130   0.66198   0.14868   Biso      1.000     C          0.62971   
         C54       1.0000    0.18340   0.78147   0.03147   Biso      1.000     C          0.622184  
         C55       1.0000    0.30620   0.73453   0.10493   Biso      1.000     C          -0.122172           
         C56       1.0000    0.92560   0.74766   0.74666   Biso      1.000     C          -0.102805           
         C57       1.0000    0.85330   0.74835   0.67145   Biso      1.000     C          0.170879  
         C58       1.0000    0.80620   0.70127   0.57167   Biso      1.000     C          -0.122169           
         C59       1.0000    0.72970   0.70114   0.50384   Biso      1.000     C          -0.240231           
         C60       1.0000    0.68340   0.65193   0.40193   Biso      1.000     C          0.622189  
         C61       1.0000    0.51970   0.41097   0.12127   Biso      1.000     C          0.216724  
         C62       1.0000    0.22970   0.72586   0.02856   Biso      1.000     C          -0.240213           
         C63       1.0000    0.41090   0.39318   0.15948   Biso      1.000     C          -0.097848           
         C64       1.0000    0.30200   0.21388   0.09368   Biso      1.000     C          -0.117342           
         C65       1.0000    0.27690   0.13093   0.04423   Biso      1.000     C          -0.258878           
         C66       1.0000    0.19130   0.04262   0.02932   Biso      1.000     C          0.629687  
         C67       1.0000    0.38730   0.58508   0.05138   Biso      1.000     C          0.176779  
         C68       1.0000    0.42560   0.67894   0.17794   Biso      1.000     C          -0.102837           
         C69       1.0000    0.35330   0.68185   0.10495   Biso      1.000     C          0.170905  
         C70       1.0000    0.38450   0.30486   0.11556   Biso      1.000     C          0.164582  
         C71       1.0000    0.21030   0.10873   0.58903   Biso      1.000     C          0.216714  
         C72       1.0000    0.61270   0.41492   0.94862   Biso      1.000     C          0.176779  
         C73       1.0000    0.07690   0.32855   0.68185   Biso      1.000     C          0.170872  
         C74       1.0000    0.23370   0.84052   0.75142   Biso      1.000     C          -0.097827           
         C75       1.0000    0.18930   0.88444   0.76894   Biso      1.000     C          0.164584  
         C76       1.0000    0.12020   0.90632   0.70832   Biso      1.000     C          -0.117363           
         C77       1.0000    0.08670   0.95577   0.73267   Biso      1.000     C          -0.258907           
         C78       1.0000    0.01330   0.97068   0.66198   Biso      1.000     C          0.629731  
         C79       1.0000    0.53370   0.94862   0.83592   Biso      1.000     C          0.176748  
         C80       1.0000    0.25000   0.59807   0.78147   Biso      1.000     C          0.62219   
         C81       1.0000    0.19730   0.49616   0.72586   Biso      1.000     C          -0.240249           
         C82       1.0000    0.12960   0.42833   0.73453   Biso      1.000     C          -0.122127           
         C83       1.0000    0.00100   0.25334   0.67894   Biso      1.000     C          -0.102795           
         C84       1.0000    0.03370   0.19778   0.58508   Biso      1.000     C          0.176725  
         C85       1.0000    0.28970   0.87873   0.89843   Biso      1.000     C          0.216699  
         C86       1.0000    0.50100   0.82206   0.74766   Biso      1.000     C          -0.102816           
         C87       1.0000    0.62960   0.89507   0.70127   Biso      1.000     C          -0.12216  
         C88       1.0000    0.69730   0.97144   0.70114   Biso      1.000     C          -0.240212           
         C89       1.0000    0.75000   0.96853   0.65193   Biso      1.000     C          0.622197  
         C90       1.0000    0.78970   0.89127   0.41097   Biso      1.000     C          0.216714  
         C91       1.0000    0.73370   0.98228   0.39318   Biso      1.000     C          -0.097799           
         C92       1.0000    0.68930   0.92036   0.30486   Biso      1.000     C          0.164549  
         C93       1.0000    0.62020   0.91188   0.21388   Biso      1.000     C          -0.117335           
         C94       1.0000    0.58670   0.85403   0.13093   Biso      1.000     C          -0.2589   
         C95       1.0000    0.51330   0.85132   0.04262   Biso      1.000     C          0.629715  
         C96       1.0000    0.57690   0.89505   0.74835   Biso      1.000     C          0.170885  
         H1        1.0000    0.21240   0.47890   0.68270   Biso      1.000     H          0.139731  
         H2        1.0000    0.11490   0.44640   0.77770   Biso      1.000     H          0.124998  
         H3        1.0000    0.97180   0.25700   0.71320   Biso      1.000     H          0.136995  
         H4        1.0000    0.71150   0.81680   0.27490   Biso      1.000     H          0.303438  
         H5        1.0000    0.28850   0.18320   0.72510   Biso      1.000     H          0.303438  
         H6        1.0000    0.03190   0.15640   0.54170   Biso      1.000     H          0.098114  
         H7        1.0000    0.28760   0.60920   0.96760   Biso      1.000     H          0.31091   
         H8        1.0000    0.45810   0.27490   0.06340   Biso      1.000     H          0.303465  
         H9        1.0000    0.14160   0.32160   0.60920   Biso      1.000     H          0.310905  
         H10       1.0000    0.78760   0.52110   0.31730   Biso      1.000     H          0.139731  
         H11       1.0000    0.60980   0.81410   0.12810   Biso      1.000     H          0.129993  
         H12       1.0000    0.72240   0.02960   0.40660   Biso      1.000     H          0.130366  
         H13       1.0000    0.32400   0.88610   0.96090   Biso      1.000     H          0.098904  
         H14       1.0000    0.22240   0.81580   0.69280   Biso      1.000     H          0.130378  
         H15       1.0000    0.09640   0.88300   0.64480   Biso      1.000     H          0.116656  
         H16       1.0000    0.10980   0.98170   0.79570   Biso      1.000     H          0.129991  
         H17       1.0000    0.21240   0.18000   0.32160   Biso      1.000     H          0.3109    
         H18       1.0000    0.04190   0.10530   0.81680   Biso      1.000     H          0.303443  
         H19       1.0000    0.29620   0.26650   0.47890   Biso      1.000     H          0.139731  
         H20       1.0000    0.16870   0.33150   0.44640   Biso      1.000     H          0.125004  
         H21       1.0000    0.04380   0.28520   0.25700   Biso      1.000     H          0.136995  
         H22       1.0000    0.11470   0.12450   0.15640   Biso      1.000     H          0.098093  
         H23       1.0000    0.18600   0.20430   0.81410   Biso      1.000     H          0.130007  
         H24       1.0000    0.23820   0.35520   0.95160   Biso      1.000     H          0.116658  
         H25       1.0000    0.12300   0.30720   0.02960   Biso      1.000     H          0.130396  
         H26       1.0000    0.92520   0.03910   0.86310   Biso      1.000     H          0.0989    
         H27       1.0000    0.71240   0.39080   0.03240   Biso      1.000     H          0.31091   
         H28       1.0000    0.54190   0.72510   0.93660   Biso      1.000     H          0.303465  
         H29       1.0000    0.79620   0.31730   0.02970   Biso      1.000     H          0.13973   
         H30       1.0000    0.82400   0.86310   0.43790   Biso      1.000     H          0.098888  
         H31       1.0000    0.64160   0.03240   0.82000   Biso      1.000     H          0.310896  
         H32       1.0000    0.21150   0.93660   0.89470   Biso      1.000     H          0.303436  
         H33       1.0000    0.71240   0.02970   0.73350   Biso      1.000     H          0.13973   
         H34       1.0000    0.61490   0.83720   0.66850   Biso      1.000     H          0.125001  
         H35       1.0000    0.47180   0.75860   0.71480   Biso      1.000     H          0.137002  
         H36       1.0000    0.59640   0.95160   0.21340   Biso      1.000     H          0.116646  
         H37       1.0000    0.53190   0.99020   0.87550   Biso      1.000     H          0.098094  
         H38       1.0000    0.62300   0.59340   0.81580   Biso      1.000     H          0.13038   
         H39       1.0000    0.73820   0.78660   0.88300   Biso      1.000     H          0.116647  
         H40       1.0000    0.68600   0.87190   0.98170   Biso      1.000     H          0.129991  
         H41       1.0000    0.61470   0.45830   0.99020   Biso      1.000     H          0.098095  
         H42       1.0000    0.54380   0.28680   0.75860   Biso      1.000     H          0.137005  
         H43       1.0000    0.66870   0.22230   0.83720   Biso      1.000     H          0.125008  
         H44       1.0000    0.42520   0.56210   0.88610   Biso      1.000     H          0.098894  
         H45       1.0000    0.33130   0.77770   0.16280   Biso      1.000     H          0.12501   
         H46       1.0000    0.20380   0.68270   0.97030   Biso      1.000     H          0.139728  
         H47       1.0000    0.38530   0.54170   0.00980   Biso      1.000     H          0.098095  
         H48       1.0000    0.46810   0.00980   0.12450   Biso      1.000     H          0.098094  
         H49       1.0000    0.52820   0.24140   0.28520   Biso      1.000     H          0.137002  
         H50       1.0000    0.38510   0.16280   0.33150   Biso      1.000     H          0.125001  
         H51       1.0000    0.28760   0.97030   0.26650   Biso      1.000     H          0.13973   
         H52       1.0000    0.78850   0.06340   0.10530   Biso      1.000     H          0.303436  
         H53       1.0000    0.35840   0.96760   0.18000   Biso      1.000     H          0.310896  
         H54       1.0000    0.90360   0.11700   0.35520   Biso      1.000     H          0.116653  
         H55       1.0000    0.88510   0.55360   0.22230   Biso      1.000     H          0.124998  
         H56       1.0000    0.96810   0.84360   0.45830   Biso      1.000     H          0.098114  
         H57       1.0000    0.39020   0.18590   0.87190   Biso      1.000     H          0.129993  
         H58       1.0000    0.40360   0.04840   0.78660   Biso      1.000     H          0.116646  
         H59       1.0000    0.27760   0.97040   0.59340   Biso      1.000     H          0.130365  
         H60       1.0000    0.17600   0.13690   0.56210   Biso      1.000     H          0.098889  
         H61       1.0000    0.45620   0.71320   0.24140   Biso      1.000     H          0.137005  
         H62       1.0000    0.02820   0.74300   0.28680   Biso      1.000     H          0.136996  
         H63       1.0000    0.77760   0.18420   0.30720   Biso      1.000     H          0.130378  
         H64       1.0000    0.89020   0.01830   0.20430   Biso      1.000     H          0.129994  
         H65       1.0000    0.85840   0.67840   0.39080   Biso      1.000     H          0.310905  
         H66       1.0000    0.31400   0.12810   0.01830   Biso      1.000     H          0.129991  
         H67       1.0000    0.26180   0.21340   0.11700   Biso      1.000     H          0.116647  
         H68       1.0000    0.37700   0.40660   0.18420   Biso      1.000     H          0.13038   
         H69       1.0000    0.57480   0.43790   0.11390   Biso      1.000     H          0.098893  
         H70       1.0000    0.78760   0.82000   0.67840   Biso      1.000     H          0.3109    
         H71       1.0000    0.67600   0.11390   0.03910   Biso      1.000     H          0.098904  
         H72       1.0000    0.70380   0.73350   0.52110   Biso      1.000     H          0.139729  
         H73       1.0000    0.95810   0.89470   0.18320   Biso      1.000     H          0.303443  
         H74       1.0000    0.95620   0.71480   0.74300   Biso      1.000     H          0.136995  
         H75       1.0000    0.88530   0.87550   0.84360   Biso      1.000     H          0.098093  
         H76       1.0000    0.81400   0.79570   0.18590   Biso      1.000     H          0.130007  
         H77       1.0000    0.76180   0.64480   0.04840   Biso      1.000     H          0.116658  
         H78       1.0000    0.87700   0.69280   0.97040   Biso      1.000     H          0.130396  
         H79       1.0000    0.07480   0.96090   0.13690   Biso      1.000     H          0.0989    
         H80       1.0000    0.83130   0.66850   0.55360   Biso      1.000     H          0.125006  
         N1        1.0000    0.66925   0.37875   0.97520   Biso      1.000     N          -0.257721           
         N2        1.0000    0.00538   0.16738   0.96488   Biso      1.000     N          -0.269944           
         N3        1.0000    0.04439   0.13645   0.86298   Biso      1.000     N          -0.266018           
         N4        1.0000    0.16925   0.19405   0.29050   Biso      1.000     N          -0.257695           
         N5        1.0000    0.05308   0.19705   0.17093   Biso      1.000     N          -0.284165           
         N6        1.0000    0.09645   0.29050   0.62125   Biso      1.000     N          -0.257718           
         N7        1.0000    0.47388   0.85603   0.80295   Biso      1.000     N          -0.28419  
         N8        1.0000    0.72653   0.86298   0.31859   Biso      1.000     N          -0.266001           
         N9        1.0000    0.29750   0.83800   0.83262   Biso      1.000     N          -0.269936           
         N10       1.0000    0.50538   0.54050   0.83800   Biso      1.000     N          -0.269932           
         N11       1.0000    0.54439   0.68141   0.90794   Biso      1.000     N          -0.266039           
         N12       1.0000    0.55308   0.38215   0.85603   Biso      1.000     N          -0.284205           
         N13       1.0000    0.40355   0.02480   0.19405   Biso      1.000     N          -0.257704           
         N14       1.0000    0.52612   0.14397   0.19705   Biso      1.000     N          -0.284191           
         N15       1.0000    0.77347   0.09206   0.13645   Biso      1.000     N          -0.265987           
         N16       1.0000    0.70250   0.16200   0.16738   Biso      1.000     N          -0.269936           
         N17       1.0000    0.90355   0.70950   0.37875   Biso      1.000     N          -0.257719           
         N18       1.0000    0.02612   0.82907   0.38215   Biso      1.000     N          -0.284178           
         N19       1.0000    0.27347   0.13702   0.68141   Biso      1.000     N          -0.266001           
         N20       1.0000    0.20250   0.03512   0.54050   Biso      1.000     N          -0.269934           
         N21       1.0000    0.22653   0.90794   0.86355   Biso      1.000     N          -0.265987           
         N22       1.0000    0.97388   0.17093   0.61785   Biso      1.000     N          -0.284179           
         N23       1.0000    0.99462   0.83262   0.03512   Biso      1.000     N          -0.269943           
         N24       1.0000    0.94692   0.80295   0.82907   Biso      1.000     N          -0.284165           
         N25       1.0000    0.83075   0.80595   0.70950   Biso      1.000     N          -0.257696           
         N26       1.0000    0.49462   0.45950   0.16200   Biso      1.000     N          -0.269932           
         N27       1.0000    0.45561   0.31859   0.09206   Biso      1.000     N          -0.266039           
         N28       1.0000    0.44692   0.61785   0.14397   Biso      1.000     N          -0.284205           
         N29       1.0000    0.33075   0.62125   0.02480   Biso      1.000     N          -0.257721           
         N30       1.0000    0.59645   0.97520   0.80595   Biso      1.000     N          -0.257705           
         N31       1.0000    0.79750   0.96488   0.45950   Biso      1.000     N          -0.269933           
         N32       1.0000    0.95561   0.86355   0.13702   Biso      1.000     N          -0.266019           
         O1        1.0000    0.82623   0.03480   0.01971   Biso      1.000     O          -0.592505           
         O2        1.0000    0.86192   0.95824   0.94072   Biso      1.000     O          -0.568618           
         O3        1.0000    0.89362   0.23950   0.04748   Biso      1.000     O          -0.566264           
         O4        1.0000    0.78098   0.15612   0.89336   Biso      1.000     O          -0.602343           
         O5        1.0000    0.32623   0.30652   0.79143   Biso      1.000     O          -0.592505           
         O6        1.0000    0.36192   0.42120   0.90368   Biso      1.000     O          -0.568634           
         O7        1.0000    0.26276   0.10664   0.38762   Biso      1.000     O          -0.602356           
         O8        1.0000    0.28098   0.38762   0.62486   Biso      1.000     O          -0.602354           
         O9        1.0000    0.76276   0.37514   0.15612   Biso      1.000     O          -0.602358           
         O10       1.0000    0.30798   0.65412   0.76050   Biso      1.000     O          -0.566264           
         O11       1.0000    0.23724   0.62486   0.84388   Biso      1.000     O          -0.602358           
         O12       1.0000    0.73724   0.89336   0.61238   Biso      1.000     O          -0.602356           
         O13       1.0000    0.80798   0.04748   0.65386   Biso      1.000     O          -0.566281           
         O14       1.0000    0.51509   0.20857   0.03480   Biso      1.000     O          -0.5925   
         O15       1.0000    0.51752   0.09632   0.95824   Biso      1.000     O          -0.56863  
         O16       1.0000    0.69202   0.34588   0.23950   Biso      1.000     O          -0.566264           
         O17       1.0000    0.98248   0.94072   0.57880   Biso      1.000     O          -0.56864  
         O18       1.0000    0.01509   0.98029   0.30652   Biso      1.000     O          -0.592507           
         O19       1.0000    0.01752   0.05928   0.42120   Biso      1.000     O          -0.568641           
         O20       1.0000    0.48248   0.90368   0.04176   Biso      1.000     O          -0.56863  
         O21       1.0000    0.19202   0.95252   0.34614   Biso      1.000     O          -0.566281           
         O22       1.0000    0.98491   0.01971   0.69348   Biso      1.000     O          -0.592508           
         O23       1.0000    0.67377   0.69348   0.20857   Biso      1.000     O          -0.592505           
         O24       1.0000    0.63808   0.57880   0.09632   Biso      1.000     O          -0.568634           
         O25       1.0000    0.60638   0.65386   0.34588   Biso      1.000     O          -0.566254           
         O26       1.0000    0.71902   0.61238   0.37514   Biso      1.000     O          -0.602353           
         O27       1.0000    0.17377   0.96520   0.98029   Biso      1.000     O          -0.592505           
         O28       1.0000    0.13808   0.04176   0.05928   Biso      1.000     O          -0.568618           
         O29       1.0000    0.10638   0.76050   0.95252   Biso      1.000     O          -0.566264           
         O30       1.0000    0.21902   0.84388   0.10664   Biso      1.000     O          -0.602342           
         O31       1.0000    0.39362   0.34614   0.65412   Biso      1.000     O          -0.566254           
         O32       1.0000    0.48491   0.79143   0.96520   Biso      1.000     O          -0.5925   
         Zn1       1.0000    0.88449   0.03649   0.59762   Biso      1.000     Zn          0.775954  
         Zn2       1.0000    0.43887   0.40238   0.78687   Biso      1.000     Zn          0.775944  
         Zn3       1.0000    0.61551   0.21313   0.15200   Biso      1.000     Zn          0.775943  
         Zn4       1.0000    0.93887   0.15200   0.03649   Biso      1.000     Zn          0.775936  
         Zn5       1.0000    0.06113   0.84800   0.96351   Biso      1.000     Zn          0.775937  
         Zn6       1.0000    0.56113   0.59762   0.21313   Biso      1.000     Zn          0.775944  
         Zn7       1.0000    0.11551   0.96351   0.40238   Biso      1.000     Zn          0.775954  
         Zn8       1.0000    0.38449   0.78687   0.84800   Biso      1.000     Zn          0.775943 