
##########################################################################
#               Crystallographic Information Format file
#               Produced by PyCifRW module
#
#  This is a CIF file.  CIF has been adopted by the International
#  Union of Crystallography as the standard for data archiving and
#  transmission.
#
#  For information on this file format, follow the CIF links at
#  http://www.iucr.org
##########################################################################

data_image0

_cell_length_a                          10.8195
_cell_length_b                          14.004
_cell_length_c                          21.682
_cell_angle_alpha                       87.57
_cell_angle_beta                        86.557
_cell_angle_gamma                       88.083
_symmetry_space_group_name_H-M          'P 1'
_symmetry_int_tables_number             1
loop_
  _symmetry_equiv_pos_as_xyz
         'x, y, z' 
loop_
  _atom_site_label
  _atom_site_occupancy
  _atom_site_fract_x
  _atom_site_fract_y
  _atom_site_fract_z
  _atom_site_thermal_displace_type
  _atom_site_B_iso_or_equiv
  _atom_site_type_symbol
  _atom_site_charge
         C1        1.0000    0.10610   0.50770   0.18920   Biso      1.000     C          0.097947  
         C2        1.0000    0.65730   0.09080   0.33380   Biso      1.000     C          0.103311  
         C3        1.0000    0.65590   0.18860   0.33560   Biso      1.000     C          -0.188733           
         C4        1.0000    0.76540   0.23650   0.33350   Biso      1.000     C          0.105028  
         C5        1.0000    0.87380   0.18090   0.32960   Biso      1.000     C          -0.18167  
         C6        1.0000    0.86830   0.08420   0.32760   Biso      1.000     C          0.103987  
         C7        1.0000    0.68830   0.09300   0.83250   Biso      1.000     C          0.102072  
         C8        1.0000    0.68620   0.19100   0.83580   Biso      1.000     C          -0.187411           
         C9        1.0000    0.79460   0.23930   0.83578   Biso      1.000     C          0.103682  
         C10       1.0000    0.90240   0.18300   0.83300   Biso      1.000     C          -0.182644           
         C11       1.0000    0.89650   0.08630   0.83090   Biso      1.000     C          0.109078  
         C12       1.0000    0.70720   0.49520   0.86440   Biso      1.000     C          0.092203  
         C13       1.0000    0.70100   0.39800   0.86460   Biso      1.000     C          -0.1889   
         C14       1.0000    0.79720   0.34450   0.83670   Biso      1.000     C          0.113962  
         C15       1.0000    0.89680   0.39360   0.81060   Biso      1.000     C          -0.188903           
         C16       1.0000    0.89390   0.49230   0.81080   Biso      1.000     C          0.097916  
         C17       1.0000    0.36540   0.70710   0.83590   Biso      1.000     C          -0.109473           
         C18       1.0000    0.10320   0.60640   0.18940   Biso      1.000     C          -0.188872           
         C19       1.0000    0.13940   0.50940   0.69430   Biso      1.000     C          0.090137  
         C20       1.0000    0.34270   0.90920   0.66620   Biso      1.000     C          0.10332   
         C21       1.0000    0.34410   0.81140   0.66440   Biso      1.000     C          -0.188718           
         C22       1.0000    0.23460   0.76350   0.66650   Biso      1.000     C          0.105028  
         C23       1.0000    0.12620   0.81910   0.67040   Biso      1.000     C          -0.181651           
         C24       1.0000    0.13170   0.91580   0.67240   Biso      1.000     C          0.104001  
         C25       1.0000    0.86060   0.49060   0.30570   Biso      1.000     C          0.090125  
         C26       1.0000    0.31170   0.90700   0.16750   Biso      1.000     C          0.102092  
         C27       1.0000    0.20540   0.76070   0.16422   Biso      1.000     C          0.103682  
         C28       1.0000    0.09760   0.81700   0.16700   Biso      1.000     C          -0.182603           
         C29       1.0000    0.10350   0.91370   0.16910   Biso      1.000     C          0.109096  
         C30       1.0000    0.29280   0.50480   0.13560   Biso      1.000     C          0.092235  
         C31       1.0000    0.29900   0.60200   0.13540   Biso      1.000     C          -0.188845           
         C32       1.0000    0.20280   0.65550   0.16330   Biso      1.000     C          0.113988  
         C33       1.0000    0.31380   0.80900   0.16420   Biso      1.000     C          -0.187371           
         C34       1.0000    0.13790   0.60670   0.69550   Biso      1.000     C          -0.188313           
         C35       1.0000    0.86210   0.39330   0.30450   Biso      1.000     C          -0.188347           
         C36       1.0000    0.67620   0.39570   0.36480   Biso      1.000     C          -0.192659           
         C37       1.0000    0.42560   0.79430   0.83023   Biso      1.000     C          -0.016576           
         C38       1.0000    0.35760   0.87990   0.82220   Biso      1.000     C          -0.108482           
         C39       1.0000    0.22980   0.87890   0.82220   Biso      1.000     C          -0.106292           
         C40       1.0000    0.16930   0.79210   0.82838   Biso      1.000     C          -0.016259           
         C41       1.0000    0.80680   0.70380   0.54850   Biso      1.000     C          -0.110711           
         C42       1.0000    0.81340   0.70390   0.61200   Biso      1.000     C          -0.11647  
         C43       1.0000    0.79350   0.78930   0.64314   Biso      1.000     C          -0.021303           
         C44       1.0000    0.76770   0.87280   0.60880   Biso      1.000     C          -0.107945           
         C45       1.0000    0.75970   0.87280   0.54690   Biso      1.000     C          -0.10172  
         C46       1.0000    0.77950   0.78700   0.51530   Biso      1.000     C          -0.006895           
         C47       1.0000    0.20760   0.70320   0.33260   Biso      1.000     C          -0.109714           
         C48       1.0000    0.33500   0.70540   0.33550   Biso      1.000     C          -0.11232  
         C49       1.0000    0.39450   0.79150   0.33133   Biso      1.000     C          -0.010251           
         C50       1.0000    0.32710   0.87610   0.32540   Biso      1.000     C          -0.111088           
         C51       1.0000    0.19990   0.87470   0.32310   Biso      1.000     C          -0.101206           
         C52       1.0000    0.13880   0.78890   0.32707   Biso      1.000     C          -0.015988           
         C53       1.0000    0.75640   0.87250   0.10890   Biso      1.000     C          -0.112488           
         C54       1.0000    0.68200   0.49330   0.36280   Biso      1.000     C          0.109727  
         C55       1.0000    0.76640   0.78920   0.21317   Biso      1.000     C          0.576771  
         C56       1.0000    0.00160   0.78870   0.32576   Biso      1.000     C          0.576564  
         C57       1.0000    0.77040   0.78740   0.44625   Biso      1.000     C          0.583932  
         C58       1.0000    0.53370   0.79120   0.33300   Biso      1.000     C          0.584884  
         C59       1.0000    0.79920   0.78950   0.71183   Biso      1.000     C          0.578708  
         C60       1.0000    0.76740   0.34300   0.33500   Biso      1.000     C          0.113319  
         C61       1.0000    0.03130   0.79120   0.82707   Biso      1.000     C          0.58459   
         C62       1.0000    0.56390   0.79560   0.83094   Biso      1.000     C          0.586174  
         C63       1.0000    0.76800   0.78840   0.14349   Biso      1.000     C          -0.014812           
         C64       1.0000    0.78640   0.70420   0.11340   Biso      1.000     C          -0.119177           
         C65       1.0000    0.79310   0.70400   0.04980   Biso      1.000     C          -0.108579           
         C66       1.0000    0.77960   0.78850   0.01462   Biso      1.000     C          -0.008204           
         C67       1.0000    0.76200   0.87360   0.04520   Biso      1.000     C          -0.101914           
         C68       1.0000    0.78730   0.79010   0.94614   Biso      1.000     C          0.591026  
         C69       1.0000    0.23260   0.65700   0.66500   Biso      1.000     C          0.113314  
         C70       1.0000    0.23730   0.70690   0.83470   Biso      1.000     C          -0.111797           
         C71       1.0000    0.31800   0.50670   0.63720   Biso      1.000     C          0.109696  
         C72       1.0000    0.23800   0.12640   0.95480   Biso      1.000     C          -0.101892           
         C73       1.0000    0.22040   0.21150   0.98538   Biso      1.000     C          -0.008245           
         C74       1.0000    0.20690   0.29600   0.95020   Biso      1.000     C          -0.108552           
         C75       1.0000    0.21360   0.29580   0.88660   Biso      1.000     C          -0.119141           
         C76       1.0000    0.23200   0.21160   0.85651   Biso      1.000     C          -0.014759           
         C77       1.0000    0.43610   0.20440   0.16906   Biso      1.000     C          0.586212  
         C78       1.0000    0.86120   0.21110   0.67293   Biso      1.000     C          -0.015984           
         C79       1.0000    0.21270   0.20990   0.05386   Biso      1.000     C          0.591091  
         C80       1.0000    0.20080   0.21050   0.28817   Biso      1.000     C          0.578746  
         C81       1.0000    0.46630   0.20880   0.66700   Biso      1.000     C          0.584889  
         C82       1.0000    0.22960   0.21260   0.55375   Biso      1.000     C          0.583917  
         C83       1.0000    0.99840   0.21130   0.67424   Biso      1.000     C          0.576563  
         C84       1.0000    0.23360   0.21080   0.78683   Biso      1.000     C          0.576754  
         C85       1.0000    0.32380   0.60430   0.63520   Biso      1.000     C          -0.192632           
         C86       1.0000    0.96870   0.20880   0.17293   Biso      1.000     C          0.58462   
         C87       1.0000    0.80010   0.12530   0.67690   Biso      1.000     C          -0.101189           
         C88       1.0000    0.24360   0.12750   0.89110   Biso      1.000     C          -0.112423           
         C89       1.0000    0.60550   0.20850   0.66867   Biso      1.000     C          -0.010255           
         C90       1.0000    0.76270   0.29310   0.16530   Biso      1.000     C          -0.111761           
         C91       1.0000    0.63460   0.29290   0.16410   Biso      1.000     C          -0.109448           
         C92       1.0000    0.57440   0.20570   0.16977   Biso      1.000     C          -0.016578           
         C93       1.0000    0.64240   0.12010   0.17780   Biso      1.000     C          -0.108445           
         C94       1.0000    0.77020   0.12110   0.17780   Biso      1.000     C          -0.106254           
         C95       1.0000    0.67290   0.12390   0.67460   Biso      1.000     C          -0.111072           
         C96       1.0000    0.19320   0.29620   0.45150   Biso      1.000     C          -0.110689           
         C97       1.0000    0.83070   0.20790   0.17162   Biso      1.000     C          -0.016256           
         C98       1.0000    0.20650   0.21070   0.35686   Biso      1.000     C          -0.021341           
         C99       1.0000    0.23230   0.12720   0.39120   Biso      1.000     C          -0.10792  
         C100      1.0000    0.24030   0.12720   0.45310   Biso      1.000     C          -0.101695           
         C101      1.0000    0.22050   0.21300   0.48470   Biso      1.000     C          -0.006833           
         C102      1.0000    0.79240   0.29680   0.66740   Biso      1.000     C          -0.109701           
         C103      1.0000    0.66500   0.29460   0.66450   Biso      1.000     C          -0.112309           
         C104      1.0000    0.18660   0.29610   0.38800   Biso      1.000     C          -0.116454           
         Cu1       1.0000    0.23700   0.11567   0.67291   Biso      1.000     Cu          0.798364  
         Cu2       1.0000    0.19832   0.30278   0.16879   Biso      1.000     Cu          0.79594   
         Cu3       1.0000    0.20715   0.11335   0.17392   Biso      1.000     Cu          0.795934  
         Cu4       1.0000    0.79285   0.88665   0.82608   Biso      1.000     Cu          0.795927  
         Cu5       1.0000    0.80168   0.69722   0.83121   Biso      1.000     Cu          0.795879  
         Cu6       1.0000    0.22874   0.30490   0.66777   Biso      1.000     Cu          0.790682  
         Cu7       1.0000    0.77126   0.69510   0.33223   Biso      1.000     Cu          0.79067   
         Cu8       1.0000    0.76300   0.88433   0.32709   Biso      1.000     Cu          0.798358  
         H1        1.0000    0.03400   0.63970   0.20720   Biso      1.000     H          0.128599  
         H2        1.0000    0.02020   0.78840   0.16740   Biso      1.000     H          0.118549  
         H3        1.0000    0.39010   0.77480   0.16190   Biso      1.000     H          0.123317  
         H4        1.0000    0.38740   0.93820   0.16720   Biso      1.000     H          0.097187  
         H5        1.0000    0.05700   0.95200   0.67520   Biso      1.000     H          0.099747  
         H6        1.0000    0.04900   0.79000   0.67160   Biso      1.000     H          0.120641  
         H7        1.0000    0.42010   0.77690   0.66170   Biso      1.000     H          0.125582  
         H8        1.0000    0.41870   0.94010   0.66440   Biso      1.000     H          0.097986  
         H9        1.0000    0.07380   0.47660   0.71510   Biso      1.000     H          0.086024  
         H10       1.0000    0.07270   0.63950   0.71710   Biso      1.000     H          0.126974  
         H11       1.0000    0.39030   0.63470   0.61340   Biso      1.000     H          0.129195  
         H12       1.0000    0.38290   0.47200   0.61680   Biso      1.000     H          0.091085  
         H13       1.0000    0.80360   0.35140   0.16190   Biso      1.000     H          0.119763  
         H14       1.0000    0.58870   0.35070   0.15960   Biso      1.000     H          0.122186  
         H15       1.0000    0.03820   0.47550   0.20830   Biso      1.000     H          0.086316  
         H16       1.0000    0.60150   0.06190   0.18320   Biso      1.000     H          0.121913  
         H17       1.0000    0.17890   0.35350   0.47220   Biso      1.000     H          0.124532  
         H18       1.0000    0.16880   0.35340   0.36570   Biso      1.000     H          0.120171  
         H19       1.0000    0.24430   0.06940   0.37080   Biso      1.000     H          0.115759  
         H20       1.0000    0.25920   0.06990   0.47520   Biso      1.000     H          0.126251  
         H21       1.0000    0.83220   0.35560   0.66560   Biso      1.000     H          0.120502  
         H22       1.0000    0.61860   0.35210   0.65960   Biso      1.000     H          0.120892  
         H23       1.0000    0.63240   0.06540   0.67710   Biso      1.000     H          0.121128  
         H24       1.0000    0.84590   0.06740   0.68120   Biso      1.000     H          0.118357  
         H25       1.0000    0.25560   0.06950   0.87090   Biso      1.000     H          0.115976  
         H26       1.0000    0.24600   0.06810   0.97760   Biso      1.000     H          0.126528  
         H27       1.0000    0.19310   0.35410   0.97010   Biso      1.000     H          0.122115  
         H28       1.0000    0.20560   0.35380   0.86360   Biso      1.000     H          0.118846  
         H29       1.0000    0.36830   0.63260   0.11640   Biso      1.000     H          0.129036  
         H30       1.0000    0.96180   0.52450   0.79170   Biso      1.000     H          0.086311  
         H31       1.0000    0.81640   0.06330   0.18200   Biso      1.000     H          0.119953  
         H32       1.0000    0.96600   0.36030   0.79280   Biso      1.000     H          0.128583  
         H33       1.0000    0.64270   0.53000   0.88500   Biso      1.000     H          0.098778  
         H34       1.0000    0.02900   0.95020   0.16940   Biso      1.000     H          0.09572   
         H35       1.0000    0.79440   0.64620   0.13640   Biso      1.000     H          0.118817  
         H36       1.0000    0.80690   0.64590   0.02990   Biso      1.000     H          0.122063  
         H37       1.0000    0.75400   0.93190   0.02240   Biso      1.000     H          0.126487  
         H38       1.0000    0.74440   0.93050   0.12910   Biso      1.000     H          0.115947  
         H39       1.0000    0.15410   0.93260   0.31880   Biso      1.000     H          0.118341  
         H40       1.0000    0.36760   0.93460   0.32290   Biso      1.000     H          0.12111   
         H41       1.0000    0.38140   0.64790   0.34040   Biso      1.000     H          0.120885  
         H42       1.0000    0.16780   0.64440   0.33440   Biso      1.000     H          0.120488  
         H43       1.0000    0.74080   0.93010   0.52480   Biso      1.000     H          0.12621   
         H44       1.0000    0.75570   0.93060   0.62920   Biso      1.000     H          0.115736  
         H45       1.0000    0.35730   0.47000   0.11500   Biso      1.000     H          0.098808  
         H46       1.0000    0.82110   0.64650   0.52780   Biso      1.000     H          0.124491  
         H47       1.0000    0.18360   0.93670   0.81800   Biso      1.000     H          0.119937  
         H48       1.0000    0.39850   0.93810   0.81680   Biso      1.000     H          0.121897  
         H49       1.0000    0.41130   0.64930   0.84040   Biso      1.000     H          0.122149  
         H50       1.0000    0.19640   0.64860   0.83810   Biso      1.000     H          0.119738  
         H51       1.0000    0.61710   0.52800   0.38320   Biso      1.000     H          0.091075  
         H52       1.0000    0.60970   0.36530   0.38660   Biso      1.000     H          0.129191  
         H53       1.0000    0.92730   0.36050   0.28290   Biso      1.000     H          0.126963  
         H54       1.0000    0.92620   0.52340   0.28490   Biso      1.000     H          0.086022  
         H55       1.0000    0.58130   0.05990   0.33560   Biso      1.000     H          0.09798   
         H56       1.0000    0.57990   0.22310   0.33830   Biso      1.000     H          0.125572  
         H57       1.0000    0.95100   0.21000   0.32840   Biso      1.000     H          0.120628  
         H58       1.0000    0.94300   0.04800   0.32480   Biso      1.000     H          0.099746  
         H59       1.0000    0.61260   0.06180   0.83280   Biso      1.000     H          0.097179  
         H60       1.0000    0.60990   0.22520   0.83810   Biso      1.000     H          0.123309  
         H61       1.0000    0.97980   0.21160   0.83260   Biso      1.000     H          0.118538  
         H62       1.0000    0.97100   0.04980   0.83060   Biso      1.000     H          0.095712  
         H63       1.0000    0.63170   0.36740   0.88360   Biso      1.000     H          0.129018  
         H64       1.0000    0.83120   0.64660   0.63430   Biso      1.000     H          0.120139  
         N1        1.0000    0.76140   0.03790   0.32946   Biso      1.000     N          -0.233557           
         N2        1.0000    0.80260   0.54380   0.83576   Biso      1.000     N          -0.220767           
         N3        1.0000    0.22910   0.45890   0.66527   Biso      1.000     N          -0.220101           
         N4        1.0000    0.23860   0.96210   0.67054   Biso      1.000     N          -0.233573           
         N5        1.0000    0.20800   0.95880   0.17089   Biso      1.000     N          -0.230471           
         N6        1.0000    0.19740   0.45620   0.16424   Biso      1.000     N          -0.220787           
         N7        1.0000    0.77090   0.54110   0.33473   Biso      1.000     N          -0.220085           
         N8        1.0000    0.79200   0.04120   0.82911   Biso      1.000     N          -0.230455           
         O1        1.0000    0.78290   0.86830   0.91700   Biso      1.000     O          -0.529021           
         O2        1.0000    0.79680   0.70980   0.92108   Biso      1.000     O          -0.541218           
         O3        1.0000    0.97340   0.87050   0.82530   Biso      1.000     O          -0.531345           
         O4        1.0000    0.98230   0.71170   0.82747   Biso      1.000     O          -0.53531  
         O5        1.0000    0.79980   0.86880   0.73578   Biso      1.000     O          -0.528193           
         O6        1.0000    0.59010   0.71280   0.33738   Biso      1.000     O          -0.527421           
         O7        1.0000    0.75970   0.86650   0.41789   Biso      1.000     O          -0.527108           
         O8        1.0000    0.77410   0.70720   0.42180   Biso      1.000     O          -0.533332           
         O9        1.0000    0.94340   0.86770   0.32394   Biso      1.000     O          -0.522688           
         O10       1.0000    0.95180   0.70750   0.32573   Biso      1.000     O          -0.538632           
         O11       1.0000    0.76590   0.86900   0.23731   Biso      1.000     O          -0.529759           
         O12       1.0000    0.76860   0.70990   0.24172   Biso      1.000     O          -0.537125           
         O13       1.0000    0.80320   0.70950   0.74059   Biso      1.000     O          -0.540977           
         O14       1.0000    0.58390   0.87170   0.33081   Biso      1.000     O          -0.531729           
         O15       1.0000    0.38580   0.12530   0.17309   Biso      1.000     O          -0.52009  
         O16       1.0000    0.37890   0.28450   0.16591   Biso      1.000     O          -0.540079           
         O17       1.0000    0.23140   0.29010   0.75828   Biso      1.000     O          -0.537109           
         O18       1.0000    0.23410   0.13100   0.76269   Biso      1.000     O          -0.529729           
         O19       1.0000    0.04820   0.29250   0.67427   Biso      1.000     O          -0.538622           
         O20       1.0000    0.05660   0.13230   0.67606   Biso      1.000     O          -0.522674           
         O21       1.0000    0.22590   0.29280   0.57820   Biso      1.000     O          -0.533339           
         O22       1.0000    0.24030   0.13350   0.58211   Biso      1.000     O          -0.527106           
         O23       1.0000    0.62110   0.71550   0.83409   Biso      1.000     O          -0.540093           
         O24       1.0000    0.40990   0.28720   0.66262   Biso      1.000     O          -0.52742  
         O25       1.0000    0.19680   0.29050   0.25941   Biso      1.000     O          -0.540974           
         O26       1.0000    0.20020   0.13120   0.26422   Biso      1.000     O          -0.528167           
         O27       1.0000    0.01770   0.28830   0.17253   Biso      1.000     O          -0.535285           
         O28       1.0000    0.02660   0.12950   0.17470   Biso      1.000     O          -0.531307           
         O29       1.0000    0.20320   0.29020   0.07892   Biso      1.000     O          -0.541203           
         O30       1.0000    0.21710   0.13170   0.08300   Biso      1.000     O          -0.528988           
         O31       1.0000    0.41610   0.12830   0.66919   Biso      1.000     O          -0.531714           
         O32       1.0000    0.61420   0.87470   0.82691   Biso      1.000     O          -0.520137 