
##########################################################################
#               Crystallographic Information Format file
#               Produced by PyCifRW module
#
#  This is a CIF file.  CIF has been adopted by the International
#  Union of Crystallography as the standard for data archiving and
#  transmission.
#
#  For information on this file format, follow the CIF links at
#  http://www.iucr.org
##########################################################################

data_image0

_cell_length_a                          9.2021
_cell_length_b                          9.2021
_cell_length_c                          14.1973
_cell_angle_alpha                       79.839
_cell_angle_beta                        79.8393
_cell_angle_gamma                       117.106
_symmetry_space_group_name_H-M          'P 1'
_symmetry_int_tables_number             1
loop_
  _symmetry_equiv_pos_as_xyz
         'x, y, z' 
loop_
  _atom_site_label
  _atom_site_occupancy
  _atom_site_fract_x
  _atom_site_fract_y
  _atom_site_fract_z
  _atom_site_thermal_displace_type
  _atom_site_B_iso_or_equiv
  _atom_site_type_symbol
  _atom_site_charge
         C1        1.0000    0.71622   0.53702   0.56556   Biso      1.000     C          -0.168326           
         C2        1.0000    0.28178   0.60258   0.43444   Biso      1.000     C          -0.168478           
         C3        1.0000    0.42794   0.75994   0.44052   Biso      1.000     C          0.705966  
         C4        1.0000    0.53702   0.71622   0.06556   Biso      1.000     C          -0.168331           
         C5        1.0000    0.70046   0.86846   0.05948   Biso      1.000     C          0.703674  
         C6        1.0000    0.39742   0.71822   0.06556   Biso      1.000     C          -0.168419           
         C7        1.0000    0.24006   0.57206   0.05948   Biso      1.000     C          0.705945  
         C8        1.0000    0.75994   0.42794   0.94052   Biso      1.000     C          0.705949  
         C9        1.0000    0.60258   0.28178   0.93444   Biso      1.000     C          -0.168474           
         C10       1.0000    0.29954   0.13154   0.94052   Biso      1.000     C          0.703669  
         C11       1.0000    0.46298   0.28378   0.93444   Biso      1.000     C          -0.168276           
         C12       1.0000    0.57206   0.24006   0.55948   Biso      1.000     C          0.705962  
         C13       1.0000    0.71822   0.39742   0.56556   Biso      1.000     C          -0.168425           
         C14       1.0000    0.86846   0.70046   0.55948   Biso      1.000     C          0.70365   
         C15       1.0000    0.07560   0.92440   0.75000   Biso      1.000     C          0.53524   
         C16       1.0000    0.17440   0.82560   0.75000   Biso      1.000     C          0.52798   
         C17       1.0000    0.92440   0.07560   0.25000   Biso      1.000     C          0.535242  
         C18       1.0000    0.82560   0.17440   0.25000   Biso      1.000     C          0.527979  
         C19       1.0000    0.13154   0.29954   0.44052   Biso      1.000     C          0.703645  
         C20       1.0000    0.28378   0.46298   0.43444   Biso      1.000     C          -0.16827  
         Er1       1.0000    0.00868   0.75868   0.98264   Biso      1.000     Er          2.093719  
         Er2       1.0000    0.24132   0.99132   0.51736   Biso      1.000     Er          2.093717  
         Er3       1.0000    0.99132   0.24132   0.01736   Biso      1.000     Er          2.093715  
         Er4       1.0000    0.75868   0.00868   0.48264   Biso      1.000     Er          2.093713  
         H1        1.0000    0.61350   0.53550   0.56960   Biso      1.000     H          0.138241  
         H2        1.0000    0.39490   0.81690   0.06960   Biso      1.000     H          0.138221  
         H3        1.0000    0.81690   0.39490   0.56960   Biso      1.000     H          0.138219  
         H4        1.0000    0.18310   0.60510   0.43040   Biso      1.000     H          0.138222  
         H5        1.0000    0.38650   0.46450   0.43040   Biso      1.000     H          0.138237  
         H6        1.0000    0.60510   0.18310   0.93040   Biso      1.000     H          0.138224  
         H7        1.0000    0.46450   0.38650   0.93040   Biso      1.000     H          0.138239  
         H8        1.0000    0.53550   0.61350   0.06960   Biso      1.000     H          0.138243  
         O1        1.0000    0.85838   0.83322   0.53480   Biso      1.000     O          -0.74954  
         O2        1.0000    0.86802   0.39318   0.96520   Biso      1.000     O          -0.750352           
         O3        1.0000    0.92683   0.00701   0.33336   Biso      1.000     O          -0.610338           
         O4        1.0000    0.42449   0.22029   0.57462   Biso      1.000     O          -0.629112           
         O5        1.0000    0.60682   0.13198   0.53480   Biso      1.000     O          -0.750361           
         O6        1.0000    0.84037   0.26019   0.16664   Biso      1.000     O          -0.607504           
         O7        1.0000    0.29491   0.99911   0.92538   Biso      1.000     O          -0.627795           
         O8        1.0000    0.16678   0.14162   0.96520   Biso      1.000     O          -0.749561           
         O9        1.0000    0.99299   0.07317   0.16664   Biso      1.000     O          -0.610339           
         O10       1.0000    0.77971   0.57551   0.92538   Biso      1.000     O          -0.629102           
         O11       1.0000    0.26019   0.84037   0.66664   Biso      1.000     O          -0.607509           
         O12       1.0000    0.39318   0.86802   0.46520   Biso      1.000     O          -0.75036  
         O13       1.0000    0.14162   0.16678   0.46520   Biso      1.000     O          -0.749541           
         O14       1.0000    0.07317   0.99299   0.66664   Biso      1.000     O          -0.610338           
         O15       1.0000    0.57551   0.77971   0.42538   Biso      1.000     O          -0.629111           
         O16       1.0000    0.15963   0.73981   0.83336   Biso      1.000     O          -0.607505           
         O17       1.0000    0.70509   0.00089   0.07462   Biso      1.000     O          -0.627796           
         O18       1.0000    0.83322   0.85838   0.03480   Biso      1.000     O          -0.74956  
         O19       1.0000    0.00701   0.92683   0.83336   Biso      1.000     O          -0.610339           
         O20       1.0000    0.22029   0.42449   0.07462   Biso      1.000     O          -0.629102           
         O21       1.0000    0.13198   0.60682   0.03480   Biso      1.000     O          -0.750353           
         O22       1.0000    0.00089   0.70509   0.57462   Biso      1.000     O          -0.627794           
         O23       1.0000    0.99911   0.29491   0.42538   Biso      1.000     O          -0.627795           
         O24       1.0000    0.73981   0.15963   0.33336   Biso      1.000     O          -0.607509 