
##########################################################################
#               Crystallographic Information Format file
#               Produced by PyCifRW module
#
#  This is a CIF file.  CIF has been adopted by the International
#  Union of Crystallography as the standard for data archiving and
#  transmission.
#
#  For information on this file format, follow the CIF links at
#  http://www.iucr.org
##########################################################################

data_image0

_cell_length_a                          7.0122
_cell_length_b                          11.1241
_cell_length_c                          20.0433
_cell_angle_alpha                       106.111
_cell_angle_beta                        98.2925
_cell_angle_gamma                       90
_symmetry_space_group_name_H-M          'P 1'
_symmetry_int_tables_number             1
loop_
  _symmetry_equiv_pos_as_xyz
         'x, y, z' 
loop_
  _atom_site_label
  _atom_site_occupancy
  _atom_site_fract_x
  _atom_site_fract_y
  _atom_site_fract_z
  _atom_site_thermal_displace_type
  _atom_site_B_iso_or_equiv
  _atom_site_type_symbol
  _atom_site_charge
         C1        1.0000    0.24550   0.47500   0.51060   Biso      1.000     C          -0.096965           
         C2        1.0000    0.18210   0.42150   0.43960   Biso      1.000     C          -0.108349           
         C3        1.0000    0.21090   0.41810   0.56140   Biso      1.000     C          0.005699  
         C4        1.0000    0.32750   0.04240   0.86900   Biso      1.000     C          0.6129479999999999  
         C5        1.0000    0.41640   0.02070   0.93680   Biso      1.000     C          -8.6e-05  
         C6        1.0000    0.49950   0.12200   0.99420   Biso      1.000     C          -0.100497           
         C7        1.0000    0.41920   0.89990   0.94540   Biso      1.000     C          -0.099373           
         C8        1.0000    0.46700   0.89210   0.65740   Biso      1.000     C          0.697063  
         C9        1.0000    0.41470   0.88460   0.58200   Biso      1.000     C          -0.052062           
         C10       1.0000    0.45650   0.78000   0.53100   Biso      1.000     C          -0.091772           
         C11       1.0000    0.28820   0.47640   0.63740   Biso      1.000     C          0.623138  
         C12       1.0000    0.39420   0.76460   0.45880   Biso      1.000     C          -0.106018           
         C13       1.0000    0.25450   0.96440   0.48940   Biso      1.000     C          -0.09590499999999999          
         C14       1.0000    0.31790   0.98190   0.56040   Biso      1.000     C          -0.10908699999999999          
         C15       1.0000    0.21180   0.83900   0.36260   Biso      1.000     C          0.6209520000000001  
         C16       1.0000    0.17250   0.17340   0.13100   Biso      1.000     C          0.6120720000000001  
         C17       1.0000    0.08360   0.08390   0.06320   Biso      1.000     C          0.001977  
         C18       1.0000    0.00050   0.12780   0.00580   Biso      1.000     C          -0.101898           
         C19       1.0000    0.08080   0.95450   0.05460   Biso      1.000     C          -0.097829           
         C20       1.0000    0.03300   0.23470   0.34260   Biso      1.000     C          0.696187  
         C21       1.0000    0.08530   0.30260   0.41800   Biso      1.000     C          -0.052756           
         C22       1.0000    0.28910   0.85670   0.43860   Biso      1.000     C          0.006179  
         C23       1.0000    0.67250   0.95760   0.13100   Biso      1.000     C          0.6129479999999999  
         C24       1.0000    0.58360   0.97930   0.06320   Biso      1.000     C          -9e-05    
         C25       1.0000    0.50050   0.87800   0.00580   Biso      1.000     C          -0.100478           
         C26       1.0000    0.71180   0.52360   0.36260   Biso      1.000     C          0.623139  
         C27       1.0000    0.81790   0.57850   0.56040   Biso      1.000     C          -0.108349           
         C28       1.0000    0.75450   0.52500   0.48940   Biso      1.000     C          -0.096965           
         C29       1.0000    0.78910   0.58190   0.43860   Biso      1.000     C          0.005699  
         C30       1.0000    0.89420   0.69420   0.45880   Biso      1.000     C          -0.103949           
         C31       1.0000    0.95650   0.75100   0.53100   Biso      1.000     C          -0.09150499999999999          
         C32       1.0000    0.91470   0.69740   0.58200   Biso      1.000     C          -0.052757000000000005         
         C33       1.0000    0.96700   0.76530   0.65740   Biso      1.000     C          0.696187  
         C34       1.0000    0.91920   0.04550   0.94540   Biso      1.000     C          -0.09780900000000001          
         C35       1.0000    0.99950   0.87220   0.99420   Biso      1.000     C          -0.101879           
         C36       1.0000    0.91640   0.91610   0.93680   Biso      1.000     C          0.001974  
         C37       1.0000    0.82750   0.82660   0.86900   Biso      1.000     C          0.6120720000000001  
         C38       1.0000    0.78820   0.16100   0.63740   Biso      1.000     C          0.6209520000000001  
         C39       1.0000    0.68210   0.01810   0.43960   Biso      1.000     C          -0.10908699999999999          
         C40       1.0000    0.74550   0.03560   0.51060   Biso      1.000     C          -0.09590499999999999          
         C41       1.0000    0.71090   0.14330   0.56140   Biso      1.000     C          0.006175  
         C42       1.0000    0.60580   0.23540   0.54120   Biso      1.000     C          -0.10601300000000001          
         C43       1.0000    0.54350   0.22000   0.46900   Biso      1.000     C          -0.09177300000000001          
         C44       1.0000    0.58530   0.11540   0.41800   Biso      1.000     C          -0.052062           
         C45       1.0000    0.53300   0.10790   0.34260   Biso      1.000     C          0.697064  
         C46       1.0000    0.58080   0.10010   0.05460   Biso      1.000     C          -0.099352           
         C47       1.0000    0.04350   0.24900   0.46900   Biso      1.000     C          -0.09150599999999999          
         C48       1.0000    0.10580   0.30580   0.54120   Biso      1.000     C          -0.103949           
         Er1       1.0000    0.14666   0.07046   0.74063   Biso      1.000     Er          2.151256  
         Er2       1.0000    0.85334   0.92954   0.25937   Biso      1.000     Er          2.1512569999999998  
         Er3       1.0000    0.35334   0.32983   0.25937   Biso      1.000     Er          2.150868  
         Er4       1.0000    0.64666   0.67017   0.74063   Biso      1.000     Er          2.150868  
         H1        1.0000    0.79710   0.53690   0.59320   Biso      1.000     H          0.09921100000000001           
         H2        1.0000    0.49760   0.20330   0.99020   Biso      1.000     H          0.125769  
         H3        1.0000    0.36340   0.83310   0.90860   Biso      1.000     H          0.1156    
         H4        1.0000    0.52760   0.71810   0.54480   Biso      1.000     H          0.104452  
         H5        1.0000    0.42370   0.69340   0.42540   Biso      1.000     H          0.12186500000000001           
         H6        1.0000    0.18630   0.02720   0.47540   Biso      1.000     H          0.116138  
         H7        1.0000    0.00240   0.21310   0.00980   Biso      1.000     H          0.125608  
         H8        1.0000    0.13660   0.92450   0.09140   Biso      1.000     H          0.114503  
         H9        1.0000    0.97240   0.17330   0.45520   Biso      1.000     H          0.10456700000000001           
         H10       1.0000    0.07630   0.26800   0.57460   Biso      1.000     H          0.12032899999999999           
         H11       1.0000    0.29710   0.05630   0.59320   Biso      1.000     H          0.099254  
         H12       1.0000    0.20290   0.46310   0.40680   Biso      1.000     H          0.09921100000000001           
         H13       1.0000    0.68630   0.44820   0.47540   Biso      1.000     H          0.116532  
         H14       1.0000    0.31370   0.55180   0.52460   Biso      1.000     H          0.116532  
         H15       1.0000    0.02760   0.82670   0.54480   Biso      1.000     H          0.10456700000000001           
         H16       1.0000    0.86340   0.07550   0.90860   Biso      1.000     H          0.114501  
         H17       1.0000    0.99760   0.78690   0.99020   Biso      1.000     H          0.125607  
         H18       1.0000    0.70290   0.94370   0.40680   Biso      1.000     H          0.099254  
         H19       1.0000    0.92370   0.73200   0.42540   Biso      1.000     H          0.12032899999999999           
         H20       1.0000    0.57630   0.30660   0.57460   Biso      1.000     H          0.12186500000000001           
         H21       1.0000    0.47240   0.28190   0.45520   Biso      1.000     H          0.104452  
         H22       1.0000    0.63660   0.16690   0.09140   Biso      1.000     H          0.11559900000000001           
         H23       1.0000    0.50240   0.79670   0.00980   Biso      1.000     H          0.12576700000000002           
         H24       1.0000    0.81370   0.97280   0.52460   Biso      1.000     H          0.116138  
         O1        1.0000    0.78600   0.04110   0.17480   Biso      1.000     O          -0.682904           
         O2        1.0000    0.05720   0.86910   0.67240   Biso      1.000     O          -0.661247           
         O3        1.0000    0.92220   0.71530   0.70400   Biso      1.000     O          -0.703518           
         O4        1.0000    0.85460   0.71180   0.85540   Biso      1.000     O          -0.685242           
         O5        1.0000    0.71400   0.86630   0.82520   Biso      1.000     O          -0.6829390000000001           
         O6        1.0000    0.70190   0.22860   0.68400   Biso      1.000     O          -0.6020770000000001           
         O7        1.0000    0.94390   0.10700   0.65040   Biso      1.000     O          -0.780676           
         O8        1.0000    0.44280   0.19670   0.32760   Biso      1.000     O          -0.6614180000000001           
         O9        1.0000    0.57780   0.01130   0.29600   Biso      1.000     O          -0.704191           
         O10       1.0000    0.64540   0.85640   0.14460   Biso      1.000     O          -0.685603           
         O11       1.0000    0.20190   0.45540   0.68400   Biso      1.000     O          -0.603344           
         O12       1.0000    0.55610   0.45660   0.34960   Biso      1.000     O          -0.780992           
         O13       1.0000    0.94280   0.13090   0.32760   Biso      1.000     O          -0.661247           
         O14       1.0000    0.07780   0.28470   0.29600   Biso      1.000     O          -0.703518           
         O15       1.0000    0.14540   0.28820   0.14460   Biso      1.000     O          -0.685241           
         O16       1.0000    0.28600   0.13370   0.17480   Biso      1.000     O          -0.6829390000000001           
         O17       1.0000    0.29810   0.77140   0.31600   Biso      1.000     O          -0.6020770000000001           
         O18       1.0000    0.05610   0.89300   0.34960   Biso      1.000     O          -0.780676           
         O19       1.0000    0.55720   0.80330   0.67240   Biso      1.000     O          -0.6614180000000001           
         O20       1.0000    0.42220   0.98870   0.70400   Biso      1.000     O          -0.704191           
         O21       1.0000    0.35460   0.14360   0.85540   Biso      1.000     O          -0.685603           
         O22       1.0000    0.21400   0.95890   0.82520   Biso      1.000     O          -0.682904           
         O23       1.0000    0.44390   0.54340   0.65040   Biso      1.000     O          -0.780992           
         O24       1.0000    0.79810   0.54460   0.31600   Biso      1.000     O          -0.603344 