
##########################################################################
#               Crystallographic Information Format file
#               Produced by PyCifRW module
#
#  This is a CIF file.  CIF has been adopted by the International
#  Union of Crystallography as the standard for data archiving and
#  transmission.
#
#  For information on this file format, follow the CIF links at
#  http://www.iucr.org
##########################################################################

data_image0

_cell_length_a                          10.9221
_cell_length_b                          19.266
_cell_length_c                          19.4537
_cell_angle_alpha                       90
_cell_angle_beta                        98.385
_cell_angle_gamma                       90
_symmetry_space_group_name_H-M          'P 1'
_symmetry_int_tables_number             1
loop_
  _symmetry_equiv_pos_as_xyz
         'x, y, z' 
loop_
  _atom_site_label
  _atom_site_occupancy
  _atom_site_fract_x
  _atom_site_fract_y
  _atom_site_fract_z
  _atom_site_thermal_displace_type
  _atom_site_B_iso_or_equiv
  _atom_site_type_symbol
  _atom_site_charge
         C1        1.0000    0.55230   0.64800   0.56020   Biso      1.000     C          0.346175  
         C2        1.0000    0.85950   0.02960   0.38690   Biso      1.000     C          0.042782  
         C3        1.0000    0.35480   0.14290   0.67200   Biso      1.000     C          -0.075772           
         C4        1.0000    0.44110   0.74280   0.77750   Biso      1.000     C          0.097508  
         C5        1.0000    0.46330   0.86410   0.46070   Biso      1.000     C          0.08176599999999999           
         C6        1.0000    0.51940   0.05160   0.63200   Biso      1.000     C          0.099785  
         C7        1.0000    0.80740   0.88530   0.54110   Biso      1.000     C          -0.541246           
         C8        1.0000    0.87230   0.07990   0.32940   Biso      1.000     C          0.639922  
         C9        1.0000    0.51550   0.29220   0.42910   Biso      1.000     C          0.017041999999999998          
         C10       1.0000    0.70320   0.81220   0.68500   Biso      1.000     C          0.639633  
         C11       1.0000    0.49880   0.59240   0.51170   Biso      1.000     C          -0.552395           
         C12       1.0000    0.64900   0.75210   0.64250   Biso      1.000     C          0.04646   
         C13       1.0000    0.71540   0.69200   0.63410   Biso      1.000     C          0.067441  
         C14       1.0000    0.46330   0.63590   0.96070   Biso      1.000     C          0.08176699999999999           
         C15       1.0000    0.48450   0.70780   0.57090   Biso      1.000     C          0.017041999999999998          
         C16       1.0000    0.44770   0.35200   0.43980   Biso      1.000     C          0.346174  
         C17       1.0000    0.28460   0.30800   0.36590   Biso      1.000     C          0.067441  
         C18       1.0000    0.12770   0.92010   0.67060   Biso      1.000     C          0.639921  
         C19       1.0000    0.19260   0.11470   0.45890   Biso      1.000     C          -0.541247           
         C20       1.0000    0.14050   0.97040   0.61310   Biso      1.000     C          0.042782  
         C21       1.0000    0.05420   0.02250   0.59370   Biso      1.000     C          0.070466  
         C22       1.0000    0.17140   0.06240   0.51280   Biso      1.000     C          0.313349  
         C23       1.0000    0.72760   0.12730   0.66350   Biso      1.000     C          -0.070392           
         C24       1.0000    0.56880   0.11380   0.74960   Biso      1.000     C          -0.010405           
         C25       1.0000    0.94580   0.97750   0.40630   Biso      1.000     C          0.070465  
         C26       1.0000    0.64940   0.24200   0.60600   Biso      1.000     C          0.018834  
         C27       1.0000    0.51940   0.44840   0.13200   Biso      1.000     C          0.099785  
         C28       1.0000    0.35480   0.35710   0.17200   Biso      1.000     C          -0.075772           
         C29       1.0000    0.72760   0.37270   0.16350   Biso      1.000     C          -0.070393           
         C30       1.0000    0.56880   0.38620   0.24960   Biso      1.000     C          -0.010405           
         C31       1.0000    0.64940   0.25800   0.10600   Biso      1.000     C          0.018834  
         C32       1.0000    0.70320   0.68780   0.18500   Biso      1.000     C          0.6396350000000001  
         C33       1.0000    0.49880   0.90760   0.01170   Biso      1.000     C          -0.5523939999999999           
         C34       1.0000    0.64900   0.74790   0.14250   Biso      1.000     C          0.046461  
         C35       1.0000    0.71540   0.80800   0.13410   Biso      1.000     C          0.067442  
         C36       1.0000    0.55230   0.85200   0.06020   Biso      1.000     C          0.346175  
         C37       1.0000    0.25570   0.00920   0.53170   Biso      1.000     C          0.017700999999999998          
         C38       1.0000    0.48450   0.79220   0.07090   Biso      1.000     C          0.017041999999999998          
         C39       1.0000    0.12770   0.57990   0.17060   Biso      1.000     C          0.639927  
         C40       1.0000    0.19260   0.38530   0.95890   Biso      1.000     C          -0.541247           
         C41       1.0000    0.14050   0.52960   0.11310   Biso      1.000     C          0.042782  
         C42       1.0000    0.05420   0.47750   0.09370   Biso      1.000     C          0.070466  
         C43       1.0000    0.74430   0.99080   0.46830   Biso      1.000     C          0.017700999999999998          
         C44       1.0000    0.17140   0.43760   0.01280   Biso      1.000     C          0.313349  
         C45       1.0000    0.25570   0.49080   0.03170   Biso      1.000     C          0.017700999999999998          
         C46       1.0000    0.82860   0.93760   0.48720   Biso      1.000     C          0.313349  
         C47       1.0000    0.59150   0.76280   0.40570   Biso      1.000     C          -0.030604000000000003         
         C48       1.0000    0.40850   0.23720   0.59430   Biso      1.000     C          -0.030602999999999998         
         C49       1.0000    0.40850   0.26280   0.09430   Biso      1.000     C          -0.030602999999999998         
         C50       1.0000    0.35100   0.24790   0.35750   Biso      1.000     C          0.046461  
         C51       1.0000    0.44110   0.75720   0.27750   Biso      1.000     C          0.097508  
         C52       1.0000    0.50120   0.09240   0.98830   Biso      1.000     C          -0.5523939999999999           
         C53       1.0000    0.55890   0.24280   0.72250   Biso      1.000     C          0.097508  
         C54       1.0000    0.53670   0.36410   0.03930   Biso      1.000     C          0.08176699999999999           
         C55       1.0000    0.27240   0.87270   0.33650   Biso      1.000     C          -0.070391           
         C56       1.0000    0.87230   0.42010   0.82940   Biso      1.000     C          0.639922  
         C57       1.0000    0.48060   0.94840   0.36800   Biso      1.000     C          0.099786  
         C58       1.0000    0.43120   0.88620   0.25040   Biso      1.000     C          -0.010403           
         C59       1.0000    0.80740   0.61470   0.04110   Biso      1.000     C          -0.541247           
         C60       1.0000    0.53670   0.13590   0.53930   Biso      1.000     C          0.08176699999999999           
         C61       1.0000    0.64520   0.85710   0.32800   Biso      1.000     C          -0.075772           
         C62       1.0000    0.51550   0.20780   0.92910   Biso      1.000     C          0.017041999999999998          
         C63       1.0000    0.29680   0.31220   0.81500   Biso      1.000     C          0.639633  
         C64       1.0000    0.44770   0.14800   0.93980   Biso      1.000     C          0.346175  
         C65       1.0000    0.50120   0.40760   0.48830   Biso      1.000     C          -0.5523939999999999           
         C66       1.0000    0.35100   0.25210   0.85750   Biso      1.000     C          0.04646   
         C67       1.0000    0.55890   0.25720   0.22250   Biso      1.000     C          0.097508  
         C68       1.0000    0.64520   0.64290   0.82800   Biso      1.000     C          -0.075772           
         C69       1.0000    0.48060   0.55160   0.86800   Biso      1.000     C          0.099785  
         C70       1.0000    0.85950   0.47040   0.88690   Biso      1.000     C          0.042782  
         C71       1.0000    0.74430   0.50920   0.96830   Biso      1.000     C          0.017700999999999998          
         C72       1.0000    0.59150   0.73720   0.90570   Biso      1.000     C          -0.030602999999999998         
         C73       1.0000    0.82860   0.56240   0.98720   Biso      1.000     C          0.313349  
         C74       1.0000    0.35060   0.75800   0.39400   Biso      1.000     C          0.018835  
         C75       1.0000    0.35060   0.74200   0.89400   Biso      1.000     C          0.018834  
         C76       1.0000    0.94580   0.52250   0.90630   Biso      1.000     C          0.070465  
         C77       1.0000    0.43120   0.61380   0.75040   Biso      1.000     C          -0.010404           
         C78       1.0000    0.28460   0.19200   0.86590   Biso      1.000     C          0.067441  
         C79       1.0000    0.29680   0.18780   0.31500   Biso      1.000     C          0.639633  
         C80       1.0000    0.27240   0.62730   0.83650   Biso      1.000     C          -0.070392           
         H1        1.0000    0.87110   0.61000   0.08110   Biso      1.000     H          0.176807  
         H2        1.0000    0.67560   0.99510   0.49200   Biso      1.000     H          0.119997  
         H3        1.0000    0.67560   0.50490   0.99200   Biso      1.000     H          0.119997  
         H4        1.0000    0.32440   0.49510   0.00800   Biso      1.000     H          0.119997  
         H5        1.0000    0.59760   0.21150   0.95130   Biso      1.000     H          0.113728  
         H6        1.0000    0.01650   0.52560   0.88410   Biso      1.000     H          0.11317999999999999           
         H7        1.0000    0.81040   0.66100   0.02190   Biso      1.000     H          0.19019   
         H8        1.0000    0.18960   0.33900   0.97810   Biso      1.000     H          0.190189  
         H9        1.0000    0.72690   0.60690   0.05510   Biso      1.000     H          0.170846  
         H10       1.0000    0.49150   0.95020   0.03740   Biso      1.000     H          0.184698  
         H11       1.0000    0.98350   0.47440   0.11590   Biso      1.000     H          0.11317999999999999           
         H12       1.0000    0.79650   0.81230   0.15770   Biso      1.000     H          0.11431300000000001           
         H13       1.0000    0.12890   0.39000   0.91890   Biso      1.000     H          0.176808  
         H14       1.0000    0.55240   0.91540   0.97680   Biso      1.000     H          0.186935  
         H15       1.0000    0.27310   0.39310   0.94490   Biso      1.000     H          0.170846  
         H16       1.0000    0.40240   0.78850   0.04870   Biso      1.000     H          0.113728  
         H17       1.0000    0.41750   0.89350   0.98910   Biso      1.000     H          0.174521  
         H18       1.0000    0.44760   0.41540   0.52320   Biso      1.000     H          0.186935  
         H19       1.0000    0.79650   0.68770   0.65770   Biso      1.000     H          0.11431300000000001           
         H20       1.0000    0.12890   0.11000   0.41890   Biso      1.000     H          0.176809  
         H21       1.0000    0.40240   0.71150   0.54870   Biso      1.000     H          0.113728  
         H22       1.0000    0.59760   0.28850   0.45130   Biso      1.000     H          0.113728  
         H23       1.0000    0.50850   0.45020   0.46260   Biso      1.000     H          0.184698  
         H24       1.0000    0.20350   0.18770   0.84230   Biso      1.000     H          0.11431300000000001           
         H25       1.0000    0.55240   0.58460   0.47680   Biso      1.000     H          0.186936  
         H26       1.0000    0.41750   0.60650   0.48910   Biso      1.000     H          0.17452   
         H27       1.0000    0.49150   0.54980   0.53740   Biso      1.000     H          0.184698  
         H28       1.0000    0.98350   0.02560   0.61590   Biso      1.000     H          0.11317999999999999           
         H29       1.0000    0.58250   0.39350   0.51090   Biso      1.000     H          0.174521  
         H30       1.0000    0.27310   0.10690   0.44490   Biso      1.000     H          0.170846  
         H31       1.0000    0.18960   0.16100   0.47810   Biso      1.000     H          0.19019   
         H32       1.0000    0.81040   0.83900   0.52190   Biso      1.000     H          0.190189  
         H33       1.0000    0.72690   0.89310   0.55510   Biso      1.000     H          0.170846  
         H34       1.0000    0.87110   0.89000   0.58110   Biso      1.000     H          0.176809  
         H35       1.0000    0.32440   0.00490   0.50800   Biso      1.000     H          0.119997  
         H36       1.0000    0.50850   0.04980   0.96260   Biso      1.000     H          0.184698  
         H37       1.0000    0.58250   0.10650   0.01090   Biso      1.000     H          0.174521  
         H38       1.0000    0.01650   0.97440   0.38410   Biso      1.000     H          0.11317999999999999           
         H39       1.0000    0.44760   0.08460   0.02320   Biso      1.000     H          0.186935  
         H40       1.0000    0.20350   0.31230   0.34230   Biso      1.000     H          0.11431400000000001           
         N1        1.0000    0.58520   0.41400   0.30240   Biso      1.000     N          -0.365528           
         N2        1.0000    0.25770   0.36560   0.18760   Biso      1.000     N          -0.335591           
         N3        1.0000    0.29000   0.71720   0.41490   Biso      1.000     N          -0.429884           
         N4        1.0000    0.82900   0.39220   0.17330   Biso      1.000     N          -0.338188           
         N5        1.0000    0.92990   0.93160   0.45600   Biso      1.000     N          -0.267179           
         N6        1.0000    0.48870   0.00793   0.37334   Biso      1.000     N          -0.46225299999999997          
         N7        1.0000    0.71000   0.21720   0.08510   Biso      1.000     N          -0.42988699999999996          
         N8        1.0000    0.33870   0.22210   0.06900   Biso      1.000     N          -0.381817           
         N9        1.0000    0.75710   0.03623   0.41766   Biso      1.000     N          -0.32889  
         N10       1.0000    0.54480   0.12311   0.48200   Biso      1.000     N          -0.479551           
         N11       1.0000    0.57660   0.21350   0.26310   Biso      1.000     N          -0.481871           
         N12       1.0000    0.46800   0.24081   0.38886   Biso      1.000     N          -0.300729           
         N13       1.0000    0.41480   0.91400   0.19760   Biso      1.000     N          -0.365535           
         N14       1.0000    0.17100   0.89220   0.32670   Biso      1.000     N          -0.33818899999999996          
         N15       1.0000    0.74230   0.86560   0.31240   Biso      1.000     N          -0.335593           
         N16       1.0000    0.33310   0.36010   0.40670   Biso      1.000     N          -0.28169  
         N17       1.0000    0.33870   0.27790   0.56900   Biso      1.000     N          -0.381818           
         N18       1.0000    0.66130   0.72210   0.43100   Biso      1.000     N          -0.381819           
         N19       1.0000    0.53200   0.75919   0.61114   Biso      1.000     N          -0.300729           
         N20       1.0000    0.66130   0.77790   0.93100   Biso      1.000     N          -0.381817           
         N21       1.0000    0.29000   0.78280   0.91490   Biso      1.000     N          -0.42988699999999996          
         N22       1.0000    0.66690   0.63990   0.59330   Biso      1.000     N          -0.28169  
         N23       1.0000    0.41480   0.58600   0.69760   Biso      1.000     N          -0.365535           
         N24       1.0000    0.17100   0.60780   0.82670   Biso      1.000     N          -0.33819099999999996          
         N25       1.0000    0.74230   0.63440   0.81240   Biso      1.000     N          -0.335591           
         N26       1.0000    0.51130   0.99207   0.62666   Biso      1.000     N          -0.46225299999999997          
         N27       1.0000    0.45520   0.87689   0.51800   Biso      1.000     N          -0.47955  
         N28       1.0000    0.42340   0.78650   0.73690   Biso      1.000     N          -0.481871           
         N29       1.0000    0.57660   0.28650   0.76310   Biso      1.000     N          -0.481871           
         N30       1.0000    0.25770   0.13440   0.68760   Biso      1.000     N          -0.335591           
         N31       1.0000    0.07010   0.06840   0.54400   Biso      1.000     N          -0.267178           
         N32       1.0000    0.58520   0.08600   0.80240   Biso      1.000     N          -0.365536           
         N33       1.0000    0.82900   0.10780   0.67330   Biso      1.000     N          -0.338192           
         N34       1.0000    0.54480   0.37689   0.98200   Biso      1.000     N          -0.47955  
         N35       1.0000    0.42340   0.71350   0.23690   Biso      1.000     N          -0.481872           
         N36       1.0000    0.45520   0.62311   0.01800   Biso      1.000     N          -0.47955  
         N37       1.0000    0.51130   0.50793   0.12666   Biso      1.000     N          -0.46225299999999997          
         N38       1.0000    0.75710   0.46377   0.91766   Biso      1.000     N          -0.32889  
         N39       1.0000    0.92990   0.56840   0.95600   Biso      1.000     N          -0.267178           
         N40       1.0000    0.66690   0.86010   0.09330   Biso      1.000     N          -0.28169  
         N41       1.0000    0.71000   0.28280   0.58510   Biso      1.000     N          -0.42988699999999996          
         N42       1.0000    0.24290   0.96377   0.58234   Biso      1.000     N          -0.32889  
         N43       1.0000    0.46800   0.25919   0.88886   Biso      1.000     N          -0.300729           
         N44       1.0000    0.33310   0.13990   0.90670   Biso      1.000     N          -0.28169  
         N45       1.0000    0.48870   0.49207   0.87334   Biso      1.000     N          -0.46225299999999997          
         N46       1.0000    0.07010   0.43160   0.04400   Biso      1.000     N          -0.267179           
         N47       1.0000    0.24290   0.53623   0.08234   Biso      1.000     N          -0.328891           
         N48       1.0000    0.53200   0.74081   0.11114   Biso      1.000     N          -0.300729           
         Nd1       1.0000    0.04936   0.12912   0.20113   Biso      1.000     Nd          1.569581  
         Nd2       1.0000    0.41501   0.87486   0.64216   Biso      1.000     Nd          1.954007  
         Nd3       1.0000    0.04936   0.37088   0.70113   Biso      1.000     Nd          1.569592  
         Nd4       1.0000    0.95064   0.62912   0.29887   Biso      1.000     Nd          1.569718  
         Nd5       1.0000    0.58499   0.37486   0.85784   Biso      1.000     Nd          1.9540060000000001  
         Nd6       1.0000    0.58499   0.12514   0.35784   Biso      1.000     Nd          1.954007  
         Nd7       1.0000    0.95064   0.87088   0.79887   Biso      1.000     Nd          1.569572  
         Nd8       1.0000    0.41501   0.62514   0.14216   Biso      1.000     Nd          1.954004  
         O1        1.0000    0.63630   0.63453   0.18563   Biso      1.000     O          -0.6347689999999999           
         O2        1.0000    0.81190   0.69341   0.21664   Biso      1.000     O          -0.608643           
         O3        1.0000    0.97330   0.41804   0.80584   Biso      1.000     O          -0.602545           
         O4        1.0000    0.77940   0.38367   0.80802   Biso      1.000     O          -0.653381           
         O5        1.0000    0.22060   0.61633   0.19198   Biso      1.000     O          -0.6533760000000001           
         O6        1.0000    0.18810   0.30659   0.78336   Biso      1.000     O          -0.608574           
         O7        1.0000    0.36370   0.36547   0.81437   Biso      1.000     O          -0.634771           
         O8        1.0000    0.02670   0.58196   0.19416   Biso      1.000     O          -0.602614           
         O9        1.0000    0.22060   0.88367   0.69198   Biso      1.000     O          -0.653382           
         O10       1.0000    0.97330   0.08196   0.30584   Biso      1.000     O          -0.60254  
         O11       1.0000    0.77940   0.11633   0.30802   Biso      1.000     O          -0.653382           
         O12       1.0000    0.36370   0.13453   0.31437   Biso      1.000     O          -0.634771           
         O13       1.0000    0.18810   0.19341   0.28336   Biso      1.000     O          -0.6085689999999999           
         O14       1.0000    0.63630   0.86547   0.68563   Biso      1.000     O          -0.634772           
         O15       1.0000    0.81190   0.80659   0.71664   Biso      1.000     O          -0.608563           
         O16       1.0000    0.02670   0.91804   0.69416   Biso      1.000     O          -0.602533           
         W1        1.0000    0.46159   0.83822   0.35331   Biso      1.000     W          0.665582  
         W2        1.0000    0.46159   0.66178   0.85331   Biso      1.000     W          0.665587  
         W3        1.0000    0.53841   0.33822   0.14669   Biso      1.000     W          0.665585  
         W4        1.0000    0.53841   0.16178   0.64669   Biso      1.000     W          0.665588 