
##########################################################################
#               Crystallographic Information Format file
#               Produced by PyCifRW module
#
#  This is a CIF file.  CIF has been adopted by the International
#  Union of Crystallography as the standard for data archiving and
#  transmission.
#
#  For information on this file format, follow the CIF links at
#  http://www.iucr.org
##########################################################################

data_image0

_cell_length_a                          8.462
_cell_length_b                          9.721
_cell_length_c                          17.266
_cell_angle_alpha                       90
_cell_angle_beta                        90
_cell_angle_gamma                       112.17
_symmetry_space_group_name_H-M          'P 1'
_symmetry_int_tables_number             1
loop_
  _symmetry_equiv_pos_as_xyz
         'x, y, z' 
loop_
  _atom_site_label
  _atom_site_occupancy
  _atom_site_fract_x
  _atom_site_fract_y
  _atom_site_fract_z
  _atom_site_thermal_displace_type
  _atom_site_B_iso_or_equiv
  _atom_site_type_symbol
  _atom_site_charge
         C1        1.0000    0.87000   0.13300   0.21250   Biso      1.000     C          0.752462  
         C2        1.0000    0.44000   0.79900   0.20950   Biso      1.000     C          0.719902  
         C3        1.0000    0.62500   0.89500   0.19800   Biso      1.000     C          -0.16622699999999999          
         C4        1.0000    0.68600   0.03800   0.21560   Biso      1.000     C          -0.16633699999999998          
         C5        1.0000    0.13000   0.36700   0.71250   Biso      1.000     C          0.75266   
         C6        1.0000    0.05600   0.47100   0.01370   Biso      1.000     C          -0.161663           
         C7        1.0000    0.09500   0.47600   0.09790   Biso      1.000     C          0.6321100000000001  
         C8        1.0000    0.44000   0.29900   0.29050   Biso      1.000     C          0.720009  
         C9        1.0000    0.62500   0.39500   0.30200   Biso      1.000     C          -0.1656   
         C10       1.0000    0.68600   0.53800   0.28440   Biso      1.000     C          -0.168957           
         C11       1.0000    0.87000   0.63300   0.28750   Biso      1.000     C          0.751216  
         C12       1.0000    0.05600   0.97100   0.48630   Biso      1.000     C          -0.22312800000000002          
         C13       1.0000    0.09500   0.97600   0.40210   Biso      1.000     C          0.644124  
         C14       1.0000    0.56000   0.20100   0.79050   Biso      1.000     C          0.72049   
         C15       1.0000    0.37500   0.10500   0.80200   Biso      1.000     C          -0.164581           
         C16       1.0000    0.31400   0.96200   0.78440   Biso      1.000     C          -0.168735           
         C17       1.0000    0.13000   0.86700   0.78750   Biso      1.000     C          0.751205  
         C18       1.0000    0.94400   0.52900   0.98630   Biso      1.000     C          -0.165693           
         C19       1.0000    0.90500   0.52400   0.90210   Biso      1.000     C          0.633533  
         C20       1.0000    0.31400   0.46200   0.71560   Biso      1.000     C          -0.167472           
         C21       1.0000    0.37500   0.60500   0.69800   Biso      1.000     C          -0.164206           
         C22       1.0000    0.56000   0.70100   0.70950   Biso      1.000     C          0.720527  
         C23       1.0000    0.90500   0.02400   0.59790   Biso      1.000     C          0.593205  
         C24       1.0000    0.94400   0.02900   0.51370   Biso      1.000     C          -0.026656           
         Dy1       1.0000    0.84353   0.52470   0.74222   Biso      1.000     Dy          2.0703169999999997  
         Dy2       1.0000    0.84353   0.02470   0.75778   Biso      1.000     Dy          2.075832  
         Dy3       1.0000    0.15647   0.47530   0.25778   Biso      1.000     Dy          2.073155  
         Dy4       1.0000    0.15647   0.97530   0.24222   Biso      1.000     Dy          2.070007  
         H1        1.0000    0.71340   0.84174   0.17346   Biso      1.000     H          0.128649  
         H2        1.0000    0.58925   0.08757   0.23386   Biso      1.000     H          0.120224  
         H3        1.0000    0.12035   0.41816   0.97161   Biso      1.000     H          0.132977  
         H4        1.0000    0.71340   0.34174   0.32654   Biso      1.000     H          0.131379  
         H5        1.0000    0.58925   0.58757   0.26614   Biso      1.000     H          0.119907  
         H6        1.0000    0.12035   0.91816   0.52839   Biso      1.000     H          0.15851400000000002           
         H7        1.0000    0.28660   0.15826   0.82654   Biso      1.000     H          0.12984600000000002           
         H8        1.0000    0.41075   0.91243   0.76614   Biso      1.000     H          0.12020299999999999           
         H9        1.0000    0.87965   0.58184   0.02839   Biso      1.000     H          0.134657  
         H10       1.0000    0.28660   0.65826   0.67346   Biso      1.000     H          0.129429  
         H11       1.0000    0.41075   0.41243   0.73386   Biso      1.000     H          0.12009   
         O1        1.0000    0.33900   0.35700   0.27100   Biso      1.000     O          -0.740826           
         O2        1.0000    0.96300   0.45370   0.85560   Biso      1.000     O          -0.666079           
         O3        1.0000    0.81300   0.59140   0.87810   Biso      1.000     O          -0.613983           
         O4        1.0000    0.09000   0.73300   0.76920   Biso      1.000     O          -0.665875           
         O5        1.0000    0.66100   0.14300   0.77100   Biso      1.000     O          -0.740309           
         O6        1.0000    0.60100   0.33830   0.79790   Biso      1.000     O          -0.638158           
         O7        1.0000    0.03700   0.04630   0.35560   Biso      1.000     O          -0.663047           
         O8        1.0000    0.18700   0.90860   0.37810   Biso      1.000     O          -0.611402           
         O9        1.0000    0.91000   0.76700   0.26920   Biso      1.000     O          -0.6657270000000001           
         O10       1.0000    0.60100   0.83830   0.70210   Biso      1.000     O          -0.639338           
         O11       1.0000    0.97490   0.57590   0.30610   Biso      1.000     O          -0.735942           
         O12       1.0000    0.66100   0.64300   0.72900   Biso      1.000     O          -0.740929           
         O13       1.0000    0.09000   0.23300   0.73080   Biso      1.000     O          -0.667834           
         O14       1.0000    0.81300   0.09140   0.62190   Biso      1.000     O          -0.602427           
         O15       1.0000    0.96300   0.95370   0.64440   Biso      1.000     O          -0.6361680000000001           
         O16       1.0000    0.39900   0.66170   0.20210   Biso      1.000     O          -0.640205           
         O17       1.0000    0.33900   0.85700   0.22900   Biso      1.000     O          -0.741099           
         O18       1.0000    0.97490   0.07590   0.19390   Biso      1.000     O          -0.736707           
         O19       1.0000    0.91000   0.26700   0.23080   Biso      1.000     O          -0.6650010000000001           
         O20       1.0000    0.18700   0.40860   0.12190   Biso      1.000     O          -0.613503           
         O21       1.0000    0.03700   0.54630   0.14440   Biso      1.000     O          -0.664518           
         O22       1.0000    0.39900   0.16170   0.29790   Biso      1.000     O          -0.6381979999999999           
         O23       1.0000    0.02510   0.42410   0.69390   Biso      1.000     O          -0.7338100000000001           
         O24       1.0000    0.02510   0.92410   0.80610   Biso      1.000     O          -0.736287 