
##########################################################################
#               Crystallographic Information Format file
#               Produced by PyCifRW module
#
#  This is a CIF file.  CIF has been adopted by the International
#  Union of Crystallography as the standard for data archiving and
#  transmission.
#
#  For information on this file format, follow the CIF links at
#  http://www.iucr.org
##########################################################################

data_image0

_cell_length_a                          16.9643
_cell_length_b                          16.9643
_cell_length_c                          7.6067
_cell_angle_alpha                       90
_cell_angle_beta                        90
_cell_angle_gamma                       90
_symmetry_space_group_name_H-M          'P 1'
_symmetry_int_tables_number             1
loop_
  _symmetry_equiv_pos_as_xyz
         'x, y, z' 
loop_
  _atom_site_label
  _atom_site_occupancy
  _atom_site_fract_x
  _atom_site_fract_y
  _atom_site_fract_z
  _atom_site_thermal_displace_type
  _atom_site_B_iso_or_equiv
  _atom_site_type_symbol
  _atom_site_charge
         C1        1.0000    0.31680   0.49620   0.92800   Biso      1.000     C          0.600779  
         C2        1.0000    0.50380   0.18320   0.17800   Biso      1.000     C          0.600779  
         C3        1.0000    0.81680   0.99620   0.42800   Biso      1.000     C          0.600779  
         C4        1.0000    0.25000   0.45420   0.87500   Biso      1.000     C          -0.526906           
         C5        1.0000    0.25000   0.62160   0.87500   Biso      1.000     C          0.42653100000000005           
         C6        1.0000    0.37840   0.25000   0.12500   Biso      1.000     C          0.42653100000000005           
         C7        1.0000    0.68320   0.50380   0.92800   Biso      1.000     C          0.600779  
         C8        1.0000    0.00380   0.68320   0.67800   Biso      1.000     C          0.600779  
         C9        1.0000    0.95420   0.25000   0.62500   Biso      1.000     C          -0.526906           
         C10       1.0000    0.81680   0.50380   0.82200   Biso      1.000     C          0.600779  
         C11       1.0000    0.18320   0.00380   0.42800   Biso      1.000     C          0.600779  
         C12       1.0000    0.12160   0.25000   0.62500   Biso      1.000     C          0.42653100000000005           
         C13       1.0000    0.54580   0.25000   0.12500   Biso      1.000     C          -0.526906           
         C14       1.0000    0.99620   0.31680   0.67800   Biso      1.000     C          0.600779  
         C15       1.0000    0.45420   0.75000   0.12500   Biso      1.000     C          -0.526906           
         C16       1.0000    0.62160   0.75000   0.12500   Biso      1.000     C          0.42653100000000005           
         C17       1.0000    0.75000   0.12160   0.37500   Biso      1.000     C          0.42653100000000005           
         C18       1.0000    0.04580   0.75000   0.62500   Biso      1.000     C          -0.526906           
         C19       1.0000    0.49620   0.81680   0.17800   Biso      1.000     C          0.600779  
         C20       1.0000    0.25000   0.87840   0.37500   Biso      1.000     C          0.42653100000000005           
         C21       1.0000    0.87840   0.75000   0.62500   Biso      1.000     C          0.42653100000000005           
         C22       1.0000    0.99620   0.18320   0.57200   Biso      1.000     C          0.600779  
         C23       1.0000    0.18320   0.49620   0.82200   Biso      1.000     C          0.600779  
         C24       1.0000    0.75000   0.37840   0.87500   Biso      1.000     C          0.42653100000000005           
         C25       1.0000    0.75000   0.54580   0.87500   Biso      1.000     C          -0.526906           
         C26       1.0000    0.49620   0.68320   0.07200   Biso      1.000     C          0.600779  
         C27       1.0000    0.50380   0.31680   0.07200   Biso      1.000     C          0.600779  
         C28       1.0000    0.68320   0.99620   0.32200   Biso      1.000     C          0.600779  
         C29       1.0000    0.75000   0.95420   0.37500   Biso      1.000     C          -0.526906           
         C30       1.0000    0.00380   0.81680   0.57200   Biso      1.000     C          0.600779  
         C31       1.0000    0.31680   0.00380   0.32200   Biso      1.000     C          0.600779  
         C32       1.0000    0.25000   0.04580   0.37500   Biso      1.000     C          -0.526906           
         H1        1.0000    0.85560   0.39800   0.79860   Biso      1.000     H          0.314006  
         H2        1.0000    0.35560   0.89800   0.29860   Biso      1.000     H          0.314006  
         H3        1.0000    0.60060   0.25000   0.12500   Biso      1.000     H          0.175463  
         H4        1.0000    0.64440   0.10200   0.29860   Biso      1.000     H          0.314006  
         H5        1.0000    0.39800   0.14440   0.20140   Biso      1.000     H          0.314006  
         H6        1.0000    0.14440   0.60200   0.79860   Biso      1.000     H          0.314006  
         H7        1.0000    0.89800   0.64440   0.70140   Biso      1.000     H          0.314006  
         H8        1.0000    0.10060   0.75000   0.62500   Biso      1.000     H          0.175463  
         H9        1.0000    0.14440   0.89800   0.45140   Biso      1.000     H          0.314006  
         H10       1.0000    0.10200   0.35560   0.70140   Biso      1.000     H          0.314006  
         H11       1.0000    0.39800   0.35560   0.04860   Biso      1.000     H          0.314006  
         H12       1.0000    0.25000   0.10060   0.37500   Biso      1.000     H          0.175463  
         H13       1.0000    0.89800   0.85560   0.54860   Biso      1.000     H          0.314006  
         H14       1.0000    0.75000   0.60060   0.87500   Biso      1.000     H          0.175463  
         H15       1.0000    0.60200   0.64440   0.04860   Biso      1.000     H          0.314006  
         H16       1.0000    0.10200   0.14440   0.54860   Biso      1.000     H          0.314006  
         H17       1.0000    0.60200   0.85560   0.20140   Biso      1.000     H          0.314006  
         H18       1.0000    0.75000   0.89940   0.37500   Biso      1.000     H          0.175463  
         H19       1.0000    0.25000   0.39940   0.87500   Biso      1.000     H          0.175463  
         H20       1.0000    0.85560   0.10200   0.45140   Biso      1.000     H          0.314006  
         H21       1.0000    0.64440   0.39800   0.95140   Biso      1.000     H          0.314006  
         H22       1.0000    0.89940   0.25000   0.62500   Biso      1.000     H          0.175463  
         H23       1.0000    0.39940   0.75000   0.12500   Biso      1.000     H          0.175463  
         H24       1.0000    0.35560   0.60200   0.95140   Biso      1.000     H          0.314006  
         Mg1       1.0000    0.00000   0.50000   0.75000   Biso      1.000     Mg          1.387222  
         Mg2       1.0000    0.00000   0.00000   0.50000   Biso      1.000     Mg          1.387222  
         Mg3       1.0000    0.50000   0.50000   0.00000   Biso      1.000     Mg          1.387222  
         Mg4       1.0000    0.50000   0.00000   0.25000   Biso      1.000     Mg          1.387222  
         N1        1.0000    0.31350   0.92300   0.32770   Biso      1.000     N          -0.428994           
         N2        1.0000    0.18650   0.57700   0.82770   Biso      1.000     N          -0.428994           
         N3        1.0000    0.81350   0.42300   0.82770   Biso      1.000     N          -0.428994           
         N4        1.0000    0.81350   0.07700   0.42230   Biso      1.000     N          -0.428994           
         N5        1.0000    0.18650   0.92300   0.42230   Biso      1.000     N          -0.428994           
         N6        1.0000    0.31350   0.57700   0.92230   Biso      1.000     N          -0.428994           
         N7        1.0000    0.07700   0.31350   0.67230   Biso      1.000     N          -0.428994           
         N8        1.0000    0.57700   0.81350   0.17230   Biso      1.000     N          -0.428994           
         N9        1.0000    0.07700   0.18650   0.57770   Biso      1.000     N          -0.428994           
         N10       1.0000    0.92300   0.68650   0.67230   Biso      1.000     N          -0.428994           
         N11       1.0000    0.68650   0.42300   0.92230   Biso      1.000     N          -0.428994           
         N12       1.0000    0.42300   0.18650   0.17230   Biso      1.000     N          -0.428994           
         N13       1.0000    0.92300   0.81350   0.57770   Biso      1.000     N          -0.428994           
         N14       1.0000    0.68650   0.07700   0.32770   Biso      1.000     N          -0.428994           
         N15       1.0000    0.42300   0.31350   0.07770   Biso      1.000     N          -0.428994           
         N16       1.0000    0.57700   0.68650   0.07770   Biso      1.000     N          -0.428994           
         O1        1.0000    0.61930   0.53480   0.98310   Biso      1.000     O          -0.672014           
         O2        1.0000    0.46520   0.61930   0.01690   Biso      1.000     O          -0.672013           
         O3        1.0000    0.38070   0.46520   0.98310   Biso      1.000     O          -0.672013           
         O4        1.0000    0.03480   0.88070   0.51690   Biso      1.000     O          -0.672013           
         O5        1.0000    0.88070   0.96520   0.48310   Biso      1.000     O          -0.672013           
         O6        1.0000    0.96520   0.11930   0.51690   Biso      1.000     O          -0.672013           
         O7        1.0000    0.53480   0.38070   0.01690   Biso      1.000     O          -0.672013           
         O8        1.0000    0.11930   0.03480   0.48310   Biso      1.000     O          -0.672014           
         O9        1.0000    0.88070   0.53480   0.76690   Biso      1.000     O          -0.672013           
         O10       1.0000    0.61930   0.96520   0.26690   Biso      1.000     O          -0.672013           
         O11       1.0000    0.11930   0.46520   0.76690   Biso      1.000     O          -0.672013           
         O12       1.0000    0.38070   0.03480   0.26690   Biso      1.000     O          -0.672013           
         O13       1.0000    0.03480   0.61930   0.73310   Biso      1.000     O          -0.672014           
         O14       1.0000    0.53480   0.11930   0.23310   Biso      1.000     O          -0.672014           
         O15       1.0000    0.46520   0.88070   0.23310   Biso      1.000     O          -0.672013           
         O16       1.0000    0.96520   0.38070   0.73310   Biso      1.000     O          -0.672013           
         S1        1.0000    0.75000   0.28243   0.87500   Biso      1.000     S          -0.396253           
         S2        1.0000    0.25000   0.78243   0.37500   Biso      1.000     S          -0.396253           
         S3        1.0000    0.28243   0.25000   0.12500   Biso      1.000     S          -0.396253           
         S4        1.0000    0.21757   0.25000   0.62500   Biso      1.000     S          -0.396253           
         S5        1.0000    0.78243   0.75000   0.62500   Biso      1.000     S          -0.396253           
         S6        1.0000    0.75000   0.21757   0.37500   Biso      1.000     S          -0.396253           
         S7        1.0000    0.71757   0.75000   0.12500   Biso      1.000     S          -0.396253           
         S8        1.0000    0.25000   0.71757   0.87500   Biso      1.000     S          -0.396253 