
##########################################################################
#               Crystallographic Information Format file
#               Produced by PyCifRW module
#
#  This is a CIF file.  CIF has been adopted by the International
#  Union of Crystallography as the standard for data archiving and
#  transmission.
#
#  For information on this file format, follow the CIF links at
#  http://www.iucr.org
##########################################################################

data_image0

_cell_length_a                          11.2668
_cell_length_b                          13.3604
_cell_length_c                          26.282
_cell_angle_alpha                       90
_cell_angle_beta                        90
_cell_angle_gamma                       90
_symmetry_space_group_name_H-M          'P 1'
_symmetry_int_tables_number             1
loop_
  _symmetry_equiv_pos_as_xyz
         'x, y, z' 
loop_
  _atom_site_label
  _atom_site_occupancy
  _atom_site_fract_x
  _atom_site_fract_y
  _atom_site_fract_z
  _atom_site_thermal_displace_type
  _atom_site_B_iso_or_equiv
  _atom_site_type_symbol
  _atom_site_charge
         C1        1.0000    0.57270   0.40620   0.77650   Biso      1.000     C          0.5674    
         C2        1.0000    0.92730   0.90620   0.27650   Biso      1.000     C          0.5674    
         C3        1.0000    0.06100   0.91060   0.27460   Biso      1.000     C          -0.032818           
         C4        1.0000    0.56100   0.58940   0.22540   Biso      1.000     C          -0.032818           
         C5        1.0000    0.42730   0.59380   0.22350   Biso      1.000     C          0.567399  
         C6        1.0000    0.70240   0.85210   0.36640   Biso      1.000     C          -0.023767           
         C7        1.0000    0.59530   0.89960   0.39090   Biso      1.000     C          0.654612  
         C8        1.0000    0.43900   0.91060   0.72540   Biso      1.000     C          -0.032818           
         C9        1.0000    0.57270   0.90620   0.72350   Biso      1.000     C          0.5674    
         C10       1.0000    0.29760   0.64790   0.86640   Biso      1.000     C          -0.023766           
         C11       1.0000    0.40470   0.60040   0.89090   Biso      1.000     C          0.654612  
         C12       1.0000    0.93900   0.58940   0.77460   Biso      1.000     C          -0.032817           
         C13       1.0000    0.07270   0.59380   0.77650   Biso      1.000     C          0.567399  
         C14       1.0000    0.79760   0.85210   0.63360   Biso      1.000     C          -0.023766           
         C15       1.0000    0.90470   0.89960   0.60910   Biso      1.000     C          0.654612  
         C16       1.0000    0.93900   0.08940   0.72540   Biso      1.000     C          -0.032818           
         C17       1.0000    0.07270   0.09380   0.72350   Biso      1.000     C          0.5674    
         C18       1.0000    0.79760   0.35210   0.86640   Biso      1.000     C          -0.023766           
         C19       1.0000    0.90470   0.39960   0.89090   Biso      1.000     C          0.654612  
         C20       1.0000    0.43900   0.41060   0.77460   Biso      1.000     C          -0.032818           
         C21       1.0000    0.29760   0.14790   0.63360   Biso      1.000     C          -0.023767           
         C22       1.0000    0.40470   0.10040   0.60910   Biso      1.000     C          0.654612  
         C23       1.0000    0.56100   0.08940   0.27460   Biso      1.000     C          -0.032817           
         C24       1.0000    0.42730   0.09380   0.27650   Biso      1.000     C          0.567399  
         C25       1.0000    0.70240   0.35210   0.13360   Biso      1.000     C          -0.023766           
         C26       1.0000    0.59530   0.39960   0.10910   Biso      1.000     C          0.654612  
         C27       1.0000    0.06100   0.41060   0.22540   Biso      1.000     C          -0.032818           
         C28       1.0000    0.92730   0.40620   0.22350   Biso      1.000     C          0.5674    
         C29       1.0000    0.20240   0.14790   0.36640   Biso      1.000     C          -0.023766           
         C30       1.0000    0.09530   0.10040   0.39090   Biso      1.000     C          0.654612  
         C31       1.0000    0.20240   0.64790   0.13360   Biso      1.000     C          -0.023766           
         C32       1.0000    0.09530   0.60040   0.10910   Biso      1.000     C          0.654613  
         La1       1.0000    0.97221   0.65859   0.21852   Biso      1.000     La          1.95311   
         La2       1.0000    0.75000   0.01130   0.50000   Biso      1.000     La          2.137762  
         La3       1.0000    0.75000   0.51130   0.00000   Biso      1.000     La          2.13776   
         La4       1.0000    0.47221   0.34141   0.21852   Biso      1.000     La          1.953111  
         La5       1.0000    0.25000   0.98870   0.50000   Biso      1.000     La          2.137764  
         La6       1.0000    0.52779   0.15859   0.71852   Biso      1.000     La          1.953112  
         La7       1.0000    0.02779   0.34141   0.78148   Biso      1.000     La          1.953111  
         La8       1.0000    0.02779   0.84141   0.71852   Biso      1.000     La          1.953112  
         La9       1.0000    0.52779   0.65859   0.78148   Biso      1.000     La          1.953113  
         La10      1.0000    0.47221   0.84141   0.28148   Biso      1.000     La          1.953111  
         La11      1.0000    0.25000   0.48870   0.00000   Biso      1.000     La          2.137767  
         La12      1.0000    0.97221   0.15859   0.28148   Biso      1.000     La          1.953111  
         O1        1.0000    0.79390   0.30180   0.81970   Biso      1.000     O          -0.287082           
         O2        1.0000    0.88620   0.45440   0.92810   Biso      1.000     O          -0.637959           
         O3        1.0000    0.00080   0.38890   0.86880   Biso      1.000     O          -0.570073           
         O4        1.0000    0.36920   0.21600   0.78290   Biso      1.000     O          -0.733913           
         O5        1.0000    0.41700   0.31170   0.86430   Biso      1.000     O          -0.506402           
         O6        1.0000    0.23040   0.35130   0.81530   Biso      1.000     O          -0.739867           
         O7        1.0000    0.36900   0.49690   0.76970   Biso      1.000     O          -0.319622           
         O8        1.0000    0.62040   0.32380   0.76960   Biso      1.000     O          -0.492869           
         O9        1.0000    0.60700   0.23380   0.88600   Biso      1.000     O          -0.427999           
         O10       1.0000    0.71570   0.22120   0.05480   Biso      1.000     O          -0.481752           
         O11       1.0000    0.78430   0.22120   0.94520   Biso      1.000     O          -0.481751           
         O12       1.0000    0.12650   0.51740   0.78970   Biso      1.000     O          -0.490022           
         O13       1.0000    0.65170   0.87480   0.55200   Biso      1.000     O          -0.785902           
         O14       1.0000    0.78430   0.72120   0.55480   Biso      1.000     O          -0.481752           
         O15       1.0000    0.60700   0.73380   0.61400   Biso      1.000     O          -0.427999           
         O16       1.0000    0.79390   0.80180   0.68030   Biso      1.000     O          -0.287082           
         O17       1.0000    0.88620   0.95440   0.57190   Biso      1.000     O          -0.637958           
         O18       1.0000    0.62650   0.48260   0.78970   Biso      1.000     O          -0.490022           
         O19       1.0000    0.00080   0.88890   0.63120   Biso      1.000     O          -0.570073           
         O20       1.0000    0.91700   0.18830   0.63570   Biso      1.000     O          -0.506401           
         O21       1.0000    0.73040   0.14870   0.68470   Biso      1.000     O          -0.739867           
         O22       1.0000    0.86900   0.00310   0.73030   Biso      1.000     O          -0.319621           
         O23       1.0000    0.12040   0.17620   0.73040   Biso      1.000     O          -0.492869           
         O24       1.0000    0.12650   0.01740   0.71030   Biso      1.000     O          -0.490022           
         O25       1.0000    0.65170   0.37480   0.94800   Biso      1.000     O          -0.785902           
         O26       1.0000    0.86920   0.28400   0.71710   Biso      1.000     O          -0.733912           
         O27       1.0000    0.15170   0.12520   0.55200   Biso      1.000     O          -0.785902           
         O28       1.0000    0.63080   0.28400   0.28290   Biso      1.000     O          -0.733913           
         O29       1.0000    0.10700   0.26620   0.61400   Biso      1.000     O          -0.427998           
         O30       1.0000    0.89300   0.23380   0.11400   Biso      1.000     O          -0.427998           
         O31       1.0000    0.70610   0.30180   0.18030   Biso      1.000     O          -0.287083           
         O32       1.0000    0.61380   0.45440   0.07190   Biso      1.000     O          -0.637959           
         O33       1.0000    0.49920   0.38890   0.13120   Biso      1.000     O          -0.570073           
         O34       1.0000    0.13080   0.21600   0.21710   Biso      1.000     O          -0.733912           
         O35       1.0000    0.08300   0.31170   0.13570   Biso      1.000     O          -0.506401           
         O36       1.0000    0.26960   0.35130   0.18470   Biso      1.000     O          -0.739868           
         O37       1.0000    0.13100   0.49690   0.23030   Biso      1.000     O          -0.319621           
         O38       1.0000    0.87960   0.32380   0.23040   Biso      1.000     O          -0.492869           
         O39       1.0000    0.87350   0.48260   0.21030   Biso      1.000     O          -0.490022           
         O40       1.0000    0.34830   0.12520   0.44800   Biso      1.000     O          -0.785902           
         O41       1.0000    0.28430   0.27880   0.55480   Biso      1.000     O          -0.481752           
         O42       1.0000    0.21570   0.27880   0.44520   Biso      1.000     O          -0.481753           
         O43       1.0000    0.20610   0.19820   0.31970   Biso      1.000     O          -0.287083           
         O44       1.0000    0.12040   0.67620   0.76960   Biso      1.000     O          -0.492869           
         O45       1.0000    0.37350   0.01740   0.28970   Biso      1.000     O          -0.490022           
         O46       1.0000    0.37960   0.17620   0.26960   Biso      1.000     O          -0.492869           
         O47       1.0000    0.63100   0.00310   0.26970   Biso      1.000     O          -0.319621           
         O48       1.0000    0.76960   0.14870   0.31530   Biso      1.000     O          -0.739867           
         O49       1.0000    0.58300   0.18830   0.36430   Biso      1.000     O          -0.506402           
         O50       1.0000    0.84830   0.37480   0.05200   Biso      1.000     O          -0.785902           
         O51       1.0000    0.50080   0.11110   0.63120   Biso      1.000     O          -0.570073           
         O52       1.0000    0.38620   0.04560   0.57190   Biso      1.000     O          -0.637959           
         O53       1.0000    0.29390   0.19820   0.68030   Biso      1.000     O          -0.287082           
         O54       1.0000    0.39300   0.26620   0.38600   Biso      1.000     O          -0.427999           
         O55       1.0000    0.86900   0.50310   0.76970   Biso      1.000     O          -0.319621           
         O56       1.0000    0.37350   0.51740   0.21030   Biso      1.000     O          -0.490022           
         O57       1.0000    0.91700   0.68830   0.86430   Biso      1.000     O          -0.506404           
         O58       1.0000    0.63100   0.50310   0.23030   Biso      1.000     O          -0.319621           
         O59       1.0000    0.76960   0.64870   0.18470   Biso      1.000     O          -0.739868           
         O60       1.0000    0.58300   0.68830   0.13570   Biso      1.000     O          -0.506404           
         O61       1.0000    0.63080   0.78400   0.21710   Biso      1.000     O          -0.733914           
         O62       1.0000    0.99920   0.61110   0.13120   Biso      1.000     O          -0.570073           
         O63       1.0000    0.73040   0.64870   0.81530   Biso      1.000     O          -0.739869           
         O64       1.0000    0.20610   0.69820   0.18030   Biso      1.000     O          -0.287082           
         O65       1.0000    0.37960   0.67620   0.23040   Biso      1.000     O          -0.492869           
         O66       1.0000    0.39300   0.76620   0.11400   Biso      1.000     O          -0.428    
         O67       1.0000    0.34830   0.62520   0.05200   Biso      1.000     O          -0.785902           
         O68       1.0000    0.87350   0.98260   0.28970   Biso      1.000     O          -0.490022           
         O69       1.0000    0.87960   0.82380   0.26960   Biso      1.000     O          -0.492869           
         O70       1.0000    0.13100   0.99690   0.26970   Biso      1.000     O          -0.319621           
         O71       1.0000    0.26960   0.85130   0.31530   Biso      1.000     O          -0.739868           
         O72       1.0000    0.08300   0.81170   0.36430   Biso      1.000     O          -0.506403           
         O73       1.0000    0.13080   0.71600   0.28290   Biso      1.000     O          -0.733913           
         O74       1.0000    0.21570   0.77880   0.05480   Biso      1.000     O          -0.481753           
         O75       1.0000    0.11380   0.04560   0.42810   Biso      1.000     O          -0.637959           
         O76       1.0000    0.11380   0.54560   0.07190   Biso      1.000     O          -0.637959           
         O77       1.0000    0.71570   0.72120   0.44520   Biso      1.000     O          -0.481753           
         O78       1.0000    0.84830   0.87480   0.44800   Biso      1.000     O          -0.785902           
         O79       1.0000    0.50080   0.61110   0.86880   Biso      1.000     O          -0.570073           
         O80       1.0000    0.38620   0.54560   0.92810   Biso      1.000     O          -0.637959           
         O81       1.0000    0.29390   0.69820   0.81970   Biso      1.000     O          -0.287082           
         O82       1.0000    0.10700   0.76620   0.88600   Biso      1.000     O          -0.427999           
         O83       1.0000    0.28430   0.77880   0.94520   Biso      1.000     O          -0.481754           
         O84       1.0000    0.15170   0.62520   0.94800   Biso      1.000     O          -0.785902           
         O85       1.0000    0.62650   0.98260   0.71030   Biso      1.000     O          -0.490022           
         O86       1.0000    0.86920   0.78400   0.78290   Biso      1.000     O          -0.733915           
         O87       1.0000    0.36900   0.99690   0.73030   Biso      1.000     O          -0.319621           
         O88       1.0000    0.62040   0.82380   0.73040   Biso      1.000     O          -0.49287  
         O89       1.0000    0.89300   0.73380   0.38600   Biso      1.000     O          -0.427998           
         O90       1.0000    0.70610   0.80180   0.31970   Biso      1.000     O          -0.287082           
         O91       1.0000    0.61380   0.95440   0.42810   Biso      1.000     O          -0.637959           
         O92       1.0000    0.99920   0.11110   0.36880   Biso      1.000     O          -0.570073           
         O93       1.0000    0.36920   0.71600   0.71710   Biso      1.000     O          -0.733912           
         O94       1.0000    0.41700   0.81170   0.63570   Biso      1.000     O          -0.5064   
         O95       1.0000    0.23040   0.85130   0.68470   Biso      1.000     O          -0.739867           
         O96       1.0000    0.49920   0.88890   0.36880   Biso      1.000     O          -0.570073           
         P1        1.0000    0.13990   0.81630   0.31108   Biso      1.000     P          1.167623  
         P2        1.0000    0.29460   0.70750   0.08599   Biso      1.000     P          1.118417  
         P3        1.0000    0.63990   0.68370   0.18892   Biso      1.000     P          1.167626  
         P4        1.0000    0.79460   0.79250   0.41401   Biso      1.000     P          1.118419  
         P5        1.0000    0.36010   0.81630   0.68892   Biso      1.000     P          1.167621  
         P6        1.0000    0.20540   0.70750   0.91401   Biso      1.000     P          1.11842   
         P7        1.0000    0.86010   0.68370   0.81108   Biso      1.000     P          1.167625  
         P8        1.0000    0.86010   0.18370   0.68892   Biso      1.000     P          1.167621  
         P9        1.0000    0.70540   0.29250   0.91401   Biso      1.000     P          1.11842   
         P10       1.0000    0.36010   0.31630   0.81108   Biso      1.000     P          1.167622  
         P11       1.0000    0.63990   0.18370   0.31108   Biso      1.000     P          1.167621  
         P12       1.0000    0.79460   0.29250   0.08599   Biso      1.000     P          1.11842   
         P13       1.0000    0.13990   0.31630   0.18892   Biso      1.000     P          1.167621  
         P14       1.0000    0.29460   0.20750   0.41401   Biso      1.000     P          1.118419  
         P15       1.0000    0.70540   0.79250   0.58599   Biso      1.000     P          1.118419  
         P16       1.0000    0.20540   0.20750   0.58599   Biso      1.000     P          1.118419 