
##########################################################################
#               Crystallographic Information Format file
#               Produced by PyCifRW module
#
#  This is a CIF file.  CIF has been adopted by the International
#  Union of Crystallography as the standard for data archiving and
#  transmission.
#
#  For information on this file format, follow the CIF links at
#  http://www.iucr.org
##########################################################################

data_image0

_cell_length_a                          7.623
_cell_length_b                          11.189
_cell_length_c                          16.873
_cell_angle_alpha                       90
_cell_angle_beta                        90
_cell_angle_gamma                       90
_symmetry_space_group_name_H-M          'P 1'
_symmetry_int_tables_number             1
loop_
  _symmetry_equiv_pos_as_xyz
         'x, y, z' 
loop_
  _atom_site_label
  _atom_site_occupancy
  _atom_site_fract_x
  _atom_site_fract_y
  _atom_site_fract_z
  _atom_site_thermal_displace_type
  _atom_site_B_iso_or_equiv
  _atom_site_type_symbol
  _atom_site_charge
         C1        1.0000    0.36510   0.94460   0.83540   Biso      1.000     C          0.19465   
         C2        1.0000    0.58260   0.93380   0.10410   Biso      1.000     C          0.547176  
         C3        1.0000    0.60960   0.95450   0.19300   Biso      1.000     C          0.004705  
         C4        1.0000    0.55890   0.06440   0.22490   Biso      1.000     C          -0.092601           
         C5        1.0000    0.58660   0.08460   0.30470   Biso      1.000     C          -0.110064           
         C6        1.0000    0.66540   0.99560   0.35020   Biso      1.000     C          0.181935  
         C7        1.0000    0.71460   0.88740   0.31940   Biso      1.000     C          -0.127943           
         C8        1.0000    0.68330   0.86510   0.23890   Biso      1.000     C          -0.08781  
         C9        1.0000    0.12640   0.88430   0.10470   Biso      1.000     C          0.569605  
         C10       1.0000    0.12940   0.94160   0.18600   Biso      1.000     C          0.022752  
         C11       1.0000    0.19870   0.88200   0.25140   Biso      1.000     C          -0.100511           
         C12       1.0000    0.13490   0.05540   0.33540   Biso      1.000     C          0.19597   
         C13       1.0000    0.06080   0.11000   0.27040   Biso      1.000     C          -0.13368  
         C14       1.0000    0.55880   0.44220   0.80240   Biso      1.000     C          -0.07044  
         C15       1.0000    0.05880   0.05780   0.19760   Biso      1.000     C          -0.070428           
         C16       1.0000    0.89040   0.04550   0.69300   Biso      1.000     C          0.004365  
         C17       1.0000    0.94110   0.93560   0.72490   Biso      1.000     C          -0.090649           
         C18       1.0000    0.91340   0.91540   0.80470   Biso      1.000     C          -0.114711           
         C19       1.0000    0.83460   0.00440   0.85020   Biso      1.000     C          0.183835  
         C20       1.0000    0.78540   0.11260   0.81940   Biso      1.000     C          -0.128815           
         C21       1.0000    0.81670   0.13490   0.73890   Biso      1.000     C          -0.088203           
         C22       1.0000    0.37360   0.11570   0.60470   Biso      1.000     C          0.571357  
         C23       1.0000    0.37060   0.05840   0.68600   Biso      1.000     C          0.01797   
         C24       1.0000    0.30130   0.11800   0.75140   Biso      1.000     C          -0.099022           
         C25       1.0000    0.29760   0.06910   0.82520   Biso      1.000     C          -0.106805           
         C26       1.0000    0.43920   0.89000   0.77040   Biso      1.000     C          -0.13605  
         C27       1.0000    0.44120   0.94220   0.69760   Biso      1.000     C          -0.069072           
         C28       1.0000    0.91740   0.06620   0.60410   Biso      1.000     C          0.548674  
         C29       1.0000    0.56080   0.39000   0.72960   Biso      1.000     C          -0.133449           
         C30       1.0000    0.20240   0.93090   0.32520   Biso      1.000     C          -0.104123           
         C31       1.0000    0.70240   0.56910   0.67480   Biso      1.000     C          -0.104122           
         C32       1.0000    0.63490   0.44460   0.66460   Biso      1.000     C          0.195947  
         C33       1.0000    0.41740   0.43380   0.39590   Biso      1.000     C          0.548568  
         C34       1.0000    0.39040   0.45450   0.30700   Biso      1.000     C          0.004906  
         C35       1.0000    0.44110   0.56440   0.27510   Biso      1.000     C          -0.090749           
         C36       1.0000    0.41340   0.58460   0.19530   Biso      1.000     C          -0.114661           
         C37       1.0000    0.33460   0.49560   0.14980   Biso      1.000     C          0.183926  
         C38       1.0000    0.28540   0.38740   0.18060   Biso      1.000     C          -0.129757           
         C39       1.0000    0.87360   0.38430   0.39530   Biso      1.000     C          0.571388  
         C40       1.0000    0.87060   0.44160   0.31400   Biso      1.000     C          0.017966  
         C41       1.0000    0.80130   0.38200   0.24860   Biso      1.000     C          -0.099081           
         C42       1.0000    0.79760   0.43090   0.17480   Biso      1.000     C          -0.106815           
         C43       1.0000    0.86510   0.55540   0.16460   Biso      1.000     C          0.194658  
         C44       1.0000    0.31670   0.36510   0.26110   Biso      1.000     C          -0.087145           
         C45       1.0000    0.21460   0.61260   0.68060   Biso      1.000     C          -0.127934           
         C46       1.0000    0.94120   0.55780   0.30240   Biso      1.000     C          -0.069108           
         C47       1.0000    0.08260   0.56620   0.89590   Biso      1.000     C          0.547182  
         C48       1.0000    0.10960   0.54550   0.80700   Biso      1.000     C          0.0047    
         C49       1.0000    0.05890   0.43560   0.77510   Biso      1.000     C          -0.092539           
         C50       1.0000    0.08660   0.41540   0.69530   Biso      1.000     C          -0.110059           
         C51       1.0000    0.16540   0.50440   0.64980   Biso      1.000     C          0.181924  
         C52       1.0000    0.18330   0.63490   0.76110   Biso      1.000     C          -0.08779  
         C53       1.0000    0.62640   0.61570   0.89530   Biso      1.000     C          0.569598  
         C54       1.0000    0.62940   0.55840   0.81400   Biso      1.000     C          0.022819  
         C55       1.0000    0.93920   0.61000   0.22960   Biso      1.000     C          -0.136052           
         C56       1.0000    0.69870   0.61800   0.74860   Biso      1.000     C          -0.100557           
         H1        1.0000    0.21744   0.72480   0.78891   Biso      1.000     H          0.106868  
         H2        1.0000    0.75538   0.71167   0.75574   Biso      1.000     H          0.100582  
         H3        1.0000    0.28156   0.27456   0.28772   Biso      1.000     H          0.104532  
         H4        1.0000    0.75599   0.62288   0.62277   Biso      1.000     H          0.139796  
         H5        1.0000    0.27950   0.68222   0.64093   Biso      1.000     H          0.122723  
         H6        1.0000    0.04516   0.32690   0.66755   Biso      1.000     H          0.126959  
         H7        1.0000    0.74462   0.28833   0.25574   Biso      1.000     H          0.098604  
         H8        1.0000    0.00007   0.60736   0.35510   Biso      1.000     H          0.119002  
         H9        1.0000    0.00168   0.70210   0.22344   Biso      1.000     H          0.100324  
         H10       1.0000    0.74401   0.37712   0.12277   Biso      1.000     H          0.137771  
         H11       1.0000    0.49832   0.29790   0.72344   Biso      1.000     H          0.102131  
         H12       1.0000    0.99622   0.36499   0.81473   Biso      1.000     H          0.116067  
         H13       1.0000    0.49993   0.39264   0.85510   Biso      1.000     H          0.120202  
         H14       1.0000    0.72050   0.18222   0.85907   Biso      1.000     H          0.120731  
         H15       1.0000    0.54516   0.17310   0.33245   Biso      1.000     H          0.127066  
         H16       1.0000    0.77950   0.81778   0.35907   Biso      1.000     H          0.122722  
         H17       1.0000    0.71744   0.77520   0.21109   Biso      1.000     H          0.106866  
         H18       1.0000    0.25538   0.78833   0.24426   Biso      1.000     H          0.100584  
         H19       1.0000    0.25599   0.87712   0.37723   Biso      1.000     H          0.13981   
         H20       1.0000    0.99832   0.20210   0.27656   Biso      1.000     H          0.102165  
         H21       1.0000    0.99993   0.10736   0.14490   Biso      1.000     H          0.12022   
         H22       1.0000    0.00378   0.86499   0.68527   Biso      1.000     H          0.115181  
         H23       1.0000    0.95484   0.82690   0.83245   Biso      1.000     H          0.125124  
         H24       1.0000    0.24401   0.12288   0.87723   Biso      1.000     H          0.137768  
         H25       1.0000    0.24462   0.21167   0.74426   Biso      1.000     H          0.098611  
         H26       1.0000    0.78256   0.22480   0.71109   Biso      1.000     H          0.105287  
         H27       1.0000    0.22050   0.31778   0.14093   Biso      1.000     H          0.120832  
         H28       1.0000    0.49622   0.13501   0.18527   Biso      1.000     H          0.116006  
         H29       1.0000    0.45484   0.67310   0.16755   Biso      1.000     H          0.125126  
         H30       1.0000    0.50007   0.89264   0.64490   Biso      1.000     H          0.118998  
         H31       1.0000    0.50168   0.79790   0.77656   Biso      1.000     H          0.10033   
         H32       1.0000    0.50378   0.63501   0.31473   Biso      1.000     H          0.115366  
         N1        1.0000    0.29650   0.52050   0.06420   Biso      1.000     N          -0.17663  
         N2        1.0000    0.85870   0.60890   0.08680   Biso      1.000     N          -0.213374           
         N3        1.0000    0.20350   0.47950   0.56420   Biso      1.000     N          -0.16511  
         N4        1.0000    0.64130   0.39110   0.58680   Biso      1.000     N          -0.209677           
         N5        1.0000    0.70350   0.02050   0.43580   Biso      1.000     N          -0.16512  
         N6        1.0000    0.14130   0.10890   0.41320   Biso      1.000     N          -0.209541           
         N7        1.0000    0.79650   0.97950   0.93580   Biso      1.000     N          -0.17661  
         N8        1.0000    0.35870   0.89110   0.91320   Biso      1.000     N          -0.213342           
         O1        1.0000    0.41990   0.05540   0.54600   Biso      1.000     O          -0.486547           
         O2        1.0000    0.48180   0.51170   0.43830   Biso      1.000     O          -0.512963           
         O3        1.0000    0.82270   0.27640   0.39710   Biso      1.000     O          -0.557632           
         O4        1.0000    0.36520   0.33130   0.42380   Biso      1.000     O          -0.529896           
         O5        1.0000    0.01820   0.48830   0.93830   Biso      1.000     O          -0.498134           
         O6        1.0000    0.13480   0.66870   0.92380   Biso      1.000     O          -0.528841           
         O7        1.0000    0.67730   0.72360   0.89710   Biso      1.000     O          -0.55463  
         O8        1.0000    0.58010   0.55540   0.95400   Biso      1.000     O          -0.476963           
         O9        1.0000    0.51820   0.01170   0.06170   Biso      1.000     O          -0.498147           
         O10       1.0000    0.63480   0.83130   0.07620   Biso      1.000     O          -0.528834           
         O11       1.0000    0.17730   0.77640   0.10290   Biso      1.000     O          -0.554642           
         O12       1.0000    0.08010   0.94460   0.04600   Biso      1.000     O          -0.477002           
         O13       1.0000    0.98180   0.98830   0.56170   Biso      1.000     O          -0.512903           
         O14       1.0000    0.86520   0.16870   0.57620   Biso      1.000     O          -0.529985           
         O15       1.0000    0.32270   0.22360   0.60290   Biso      1.000     O          -0.557624           
         O16       1.0000    0.91990   0.44460   0.45400   Biso      1.000     O          -0.486553           
         Zn1       1.0000    0.60140   0.85820   0.96130   Biso      1.000     Zn          0.835944  
         Zn2       1.0000    0.89860   0.14180   0.46130   Biso      1.000     Zn          0.834336  
         Zn3       1.0000    0.39860   0.35820   0.53870   Biso      1.000     Zn          0.834285  
         Zn4       1.0000    0.10140   0.64180   0.03870   Biso      1.000     Zn          0.835951 