
##########################################################################
#               Crystallographic Information Format file
#               Produced by PyCifRW module
#
#  This is a CIF file.  CIF has been adopted by the International
#  Union of Crystallography as the standard for data archiving and
#  transmission.
#
#  For information on this file format, follow the CIF links at
#  http://www.iucr.org
##########################################################################

data_image0

_cell_length_a                          11.0757
_cell_length_b                          13.0433
_cell_length_c                          25.7014
_cell_angle_alpha                       90
_cell_angle_beta                        90
_cell_angle_gamma                       90
_symmetry_space_group_name_H-M          'P 1'
_symmetry_int_tables_number             1
loop_
  _symmetry_equiv_pos_as_xyz
         'x, y, z' 
loop_
  _atom_site_label
  _atom_site_occupancy
  _atom_site_fract_x
  _atom_site_fract_y
  _atom_site_fract_z
  _atom_site_thermal_displace_type
  _atom_site_B_iso_or_equiv
  _atom_site_type_symbol
  _atom_site_charge
         C1        1.0000    0.44510   0.59830   0.23011   Biso      1.000     C          0.658399  
         C2        1.0000    0.21580   0.63480   0.12945   Biso      1.000     C          -0.23294  
         C3        1.0000    0.09890   0.59410   0.10480   Biso      1.000     C          0.701967  
         C4        1.0000    0.58180   0.59270   0.23830   Biso      1.000     C          -0.232865           
         C5        1.0000    0.71580   0.86520   0.37055   Biso      1.000     C          -0.233129           
         C6        1.0000    0.59890   0.90590   0.39520   Biso      1.000     C          0.701857  
         C7        1.0000    0.41820   0.90730   0.73830   Biso      1.000     C          -0.232772           
         C8        1.0000    0.55490   0.90170   0.73011   Biso      1.000     C          0.658454  
         C9        1.0000    0.28420   0.63480   0.87055   Biso      1.000     C          -0.23294  
         C10       1.0000    0.40110   0.59410   0.89520   Biso      1.000     C          0.701967  
         C11       1.0000    0.91820   0.59270   0.76170   Biso      1.000     C          -0.232863           
         C12       1.0000    0.05490   0.59830   0.76989   Biso      1.000     C          0.658399  
         C13       1.0000    0.78420   0.86520   0.62945   Biso      1.000     C          -0.233129           
         C14       1.0000    0.90110   0.90590   0.60480   Biso      1.000     C          0.701856  
         C15       1.0000    0.91820   0.09270   0.73830   Biso      1.000     C          -0.232866           
         C16       1.0000    0.05490   0.09830   0.73011   Biso      1.000     C          0.658396  
         C17       1.0000    0.78420   0.36520   0.87055   Biso      1.000     C          -0.233138           
         C18       1.0000    0.90110   0.40590   0.89520   Biso      1.000     C          0.701861  
         C19       1.0000    0.41820   0.40730   0.76170   Biso      1.000     C          -0.232773           
         C20       1.0000    0.55490   0.40170   0.76989   Biso      1.000     C          0.658456  
         C21       1.0000    0.28420   0.13480   0.62945   Biso      1.000     C          -0.232935           
         C22       1.0000    0.40110   0.09410   0.60480   Biso      1.000     C          0.701978  
         C23       1.0000    0.58180   0.09270   0.26170   Biso      1.000     C          -0.232866           
         C24       1.0000    0.44510   0.09830   0.26989   Biso      1.000     C          0.658397  
         C25       1.0000    0.71580   0.36520   0.12945   Biso      1.000     C          -0.233137           
         C26       1.0000    0.59890   0.40590   0.10480   Biso      1.000     C          0.70186   
         C27       1.0000    0.08180   0.40730   0.23830   Biso      1.000     C          -0.232771           
         C28       1.0000    0.94510   0.40170   0.23011   Biso      1.000     C          0.658456  
         C29       1.0000    0.21580   0.13480   0.37055   Biso      1.000     C          -0.232933           
         C30       1.0000    0.09890   0.09410   0.39520   Biso      1.000     C          0.701978  
         C31       1.0000    0.94510   0.90170   0.26989   Biso      1.000     C          0.658454  
         C32       1.0000    0.08180   0.90730   0.26170   Biso      1.000     C          -0.232772           
         Gd1       1.0000    0.97942   0.65703   0.21878   Biso      1.000     Gd          2.10554   
         Gd2       1.0000    0.25000   0.99213   0.50000   Biso      1.000     Gd          2.137932  
         Gd3       1.0000    0.75000   0.00787   0.50000   Biso      1.000     Gd          2.137523  
         Gd4       1.0000    0.25000   0.49213   0.00000   Biso      1.000     Gd          2.137878  
         Gd5       1.0000    0.97942   0.15703   0.28122   Biso      1.000     Gd          2.105524  
         Gd6       1.0000    0.47942   0.34297   0.21878   Biso      1.000     Gd          2.10621   
         Gd7       1.0000    0.75000   0.50787   0.00000   Biso      1.000     Gd          2.137618  
         Gd8       1.0000    0.02058   0.34297   0.78122   Biso      1.000     Gd          2.106207  
         Gd9       1.0000    0.02058   0.84297   0.71878   Biso      1.000     Gd          2.106161  
         Gd10      1.0000    0.52058   0.65703   0.78122   Biso      1.000     Gd          2.105541  
         Gd11      1.0000    0.47942   0.84297   0.28122   Biso      1.000     Gd          2.106161  
         Gd12      1.0000    0.52058   0.15703   0.71878   Biso      1.000     Gd          2.105521  
         H1        1.0000    0.10060   0.39060   0.27540   Biso      1.000     H          0.123446  
         H2        1.0000    0.60060   0.60940   0.27540   Biso      1.000     H          0.12378   
         H3        1.0000    0.10060   0.89060   0.22460   Biso      1.000     H          0.123392  
         H4        1.0000    0.19520   0.00840   0.27490   Biso      1.000     H          0.418287  
         H5        1.0000    0.26260   0.57370   0.14150   Biso      1.000     H          0.131798  
         H6        1.0000    0.24800   0.68590   0.19230   Biso      1.000     H          0.405984  
         H7        1.0000    0.24800   0.18590   0.30770   Biso      1.000     H          0.405979  
         H8        1.0000    0.26260   0.07370   0.35850   Biso      1.000     H          0.131806  
         H9        1.0000    0.19520   0.50840   0.22510   Biso      1.000     H          0.41829   
         H10       1.0000    0.74800   0.31410   0.19230   Biso      1.000     H          0.405939  
         H11       1.0000    0.69520   0.49160   0.22510   Biso      1.000     H          0.418288  
         H12       1.0000    0.69520   0.99160   0.27490   Biso      1.000     H          0.418286  
         H13       1.0000    0.73740   0.92630   0.64150   Biso      1.000     H          0.131602  
         H14       1.0000    0.80480   0.49160   0.77490   Biso      1.000     H          0.418289  
         H15       1.0000    0.89940   0.60940   0.72460   Biso      1.000     H          0.123779  
         H16       1.0000    0.25200   0.68590   0.80770   Biso      1.000     H          0.405985  
         H17       1.0000    0.23740   0.57370   0.85850   Biso      1.000     H          0.131799  
         H18       1.0000    0.30480   0.00840   0.72510   Biso      1.000     H          0.418287  
         H19       1.0000    0.39940   0.89060   0.77540   Biso      1.000     H          0.123392  
         H20       1.0000    0.74800   0.81410   0.30770   Biso      1.000     H          0.405929  
         H21       1.0000    0.76260   0.92630   0.35850   Biso      1.000     H          0.131601  
         H22       1.0000    0.76260   0.42630   0.14150   Biso      1.000     H          0.131614  
         H23       1.0000    0.89940   0.10940   0.77540   Biso      1.000     H          0.123736  
         H24       1.0000    0.75200   0.81410   0.69230   Biso      1.000     H          0.40593   
         H25       1.0000    0.80480   0.99160   0.72510   Biso      1.000     H          0.418286  
         H26       1.0000    0.73740   0.42630   0.85850   Biso      1.000     H          0.131616  
         H27       1.0000    0.75200   0.31410   0.80770   Biso      1.000     H          0.40594   
         H28       1.0000    0.39940   0.39060   0.72460   Biso      1.000     H          0.123444  
         H29       1.0000    0.30480   0.50840   0.77490   Biso      1.000     H          0.41829   
         H30       1.0000    0.23740   0.07370   0.64150   Biso      1.000     H          0.131806  
         H31       1.0000    0.25200   0.18590   0.69230   Biso      1.000     H          0.405979  
         H32       1.0000    0.60060   0.10940   0.22460   Biso      1.000     H          0.123736  
         O1        1.0000    0.21670   0.33780   0.80722   Biso      1.000     O          -0.828598           
         O2        1.0000    0.99650   0.39890   0.86844   Biso      1.000     O          -0.636491           
         O3        1.0000    0.89560   0.44230   0.93961   Biso      1.000     O          -0.677794           
         O4        1.0000    0.37790   0.50860   0.77274   Biso      1.000     O          -0.568914           
         O5        1.0000    0.60270   0.31470   0.76448   Biso      1.000     O          -0.645022           
         O6        1.0000    0.40130   0.32760   0.85946   Biso      1.000     O          -0.528416           
         O7        1.0000    0.37850   0.20890   0.78085   Biso      1.000     O          -0.829348           
         O8        1.0000    0.76560   0.22050   0.94952   Biso      1.000     O          -0.450623           
         O9        1.0000    0.59200   0.24220   0.88759   Biso      1.000     O          -0.500034           
         O10       1.0000    0.11070   0.51730   0.78109   Biso      1.000     O          -0.602717           
         O11       1.0000    0.64190   0.88220   0.54621   Biso      1.000     O          -0.800972           
         O12       1.0000    0.76560   0.72050   0.55048   Biso      1.000     O          -0.450699           
         O13       1.0000    0.59200   0.74220   0.61241   Biso      1.000     O          -0.500079           
         O14       1.0000    0.81450   0.80730   0.67512   Biso      1.000     O          -0.572854           
         O15       1.0000    0.89560   0.94230   0.56039   Biso      1.000     O          -0.677784           
         O16       1.0000    0.99650   0.89890   0.63156   Biso      1.000     O          -0.636507           
         O17       1.0000    0.87850   0.29110   0.71915   Biso      1.000     O          -0.834877           
         O18       1.0000    0.90130   0.17240   0.64054   Biso      1.000     O          -0.529061           
         O19       1.0000    0.71670   0.16220   0.69278   Biso      1.000     O          -0.827258           
         O20       1.0000    0.87790   0.99140   0.72726   Biso      1.000     O          -0.568707           
         O21       1.0000    0.10270   0.18530   0.73552   Biso      1.000     O          -0.645597           
         O22       1.0000    0.11070   0.01730   0.71891   Biso      1.000     O          -0.602696           
         O23       1.0000    0.64190   0.38220   0.95379   Biso      1.000     O          -0.800956           
         O24       1.0000    0.61070   0.48270   0.78109   Biso      1.000     O          -0.602574           
         O25       1.0000    0.81450   0.30730   0.82488   Biso      1.000     O          -0.572823           
         O26       1.0000    0.14190   0.11780   0.54621   Biso      1.000     O          -0.80018  
         O27       1.0000    0.38930   0.01730   0.28109   Biso      1.000     O          -0.602696           
         O28       1.0000    0.09200   0.25780   0.61241   Biso      1.000     O          -0.495354           
         O29       1.0000    0.85810   0.38220   0.04621   Biso      1.000     O          -0.800957           
         O30       1.0000    0.10270   0.68530   0.76448   Biso      1.000     O          -0.645555           
         O31       1.0000    0.73440   0.22050   0.05048   Biso      1.000     O          -0.450627           
         O32       1.0000    0.90800   0.24220   0.11241   Biso      1.000     O          -0.500042           
         O33       1.0000    0.68550   0.30730   0.17512   Biso      1.000     O          -0.572824           
         O34       1.0000    0.60440   0.44230   0.06039   Biso      1.000     O          -0.677794           
         O35       1.0000    0.50350   0.39890   0.13156   Biso      1.000     O          -0.636494           
         O36       1.0000    0.12150   0.20890   0.21915   Biso      1.000     O          -0.829344           
         O37       1.0000    0.09870   0.32760   0.14054   Biso      1.000     O          -0.528412           
         O38       1.0000    0.28330   0.33780   0.19278   Biso      1.000     O          -0.828594           
         O39       1.0000    0.12210   0.50860   0.22726   Biso      1.000     O          -0.568911           
         O40       1.0000    0.89730   0.31470   0.23552   Biso      1.000     O          -0.645019           
         O41       1.0000    0.88930   0.48270   0.21891   Biso      1.000     O          -0.602571           
         O42       1.0000    0.35810   0.11780   0.45379   Biso      1.000     O          -0.80018  
         O43       1.0000    0.23440   0.27950   0.44952   Biso      1.000     O          -0.455729           
         O44       1.0000    0.40800   0.25780   0.38759   Biso      1.000     O          -0.495352           
         O45       1.0000    0.18550   0.19270   0.32488   Biso      1.000     O          -0.571244           
         O46       1.0000    0.39730   0.18530   0.26448   Biso      1.000     O          -0.645597           
         O47       1.0000    0.62210   0.99140   0.27274   Biso      1.000     O          -0.568707           
         O48       1.0000    0.78330   0.16220   0.30722   Biso      1.000     O          -0.827265           
         O49       1.0000    0.59870   0.17240   0.35946   Biso      1.000     O          -0.529078           
         O50       1.0000    0.62150   0.29110   0.28085   Biso      1.000     O          -0.834882           
         O51       1.0000    0.49650   0.10110   0.63156   Biso      1.000     O          -0.635836           
         O52       1.0000    0.39560   0.05770   0.56039   Biso      1.000     O          -0.677024           
         O53       1.0000    0.31450   0.19270   0.67512   Biso      1.000     O          -0.571244           
         O54       1.0000    0.26560   0.27950   0.55048   Biso      1.000     O          -0.455732           
         O55       1.0000    0.87790   0.49140   0.77274   Biso      1.000     O          -0.568707           
         O56       1.0000    0.09870   0.82760   0.35946   Biso      1.000     O          -0.528607           
         O57       1.0000    0.90130   0.67240   0.85946   Biso      1.000     O          -0.528974           
         O58       1.0000    0.62210   0.49140   0.22726   Biso      1.000     O          -0.568706           
         O59       1.0000    0.78330   0.66220   0.19278   Biso      1.000     O          -0.827219           
         O60       1.0000    0.59870   0.67240   0.14054   Biso      1.000     O          -0.528967           
         O61       1.0000    0.62150   0.79110   0.21915   Biso      1.000     O          -0.834815           
         O62       1.0000    0.00350   0.60110   0.13156   Biso      1.000     O          -0.635847           
         O63       1.0000    0.71670   0.66220   0.80722   Biso      1.000     O          -0.827223           
         O64       1.0000    0.18550   0.69270   0.17512   Biso      1.000     O          -0.571224           
         O65       1.0000    0.39730   0.68530   0.23552   Biso      1.000     O          -0.645555           
         O66       1.0000    0.40800   0.75780   0.11241   Biso      1.000     O          -0.49537  
         O67       1.0000    0.35810   0.61780   0.04621   Biso      1.000     O          -0.800185           
         O68       1.0000    0.88930   0.98270   0.28109   Biso      1.000     O          -0.602578           
         O69       1.0000    0.89730   0.81470   0.26448   Biso      1.000     O          -0.645037           
         O70       1.0000    0.12210   0.00860   0.27274   Biso      1.000     O          -0.568933           
         O71       1.0000    0.28330   0.83780   0.30722   Biso      1.000     O          -0.828676           
         O72       1.0000    0.10440   0.05770   0.43961   Biso      1.000     O          -0.677023           
         O73       1.0000    0.12150   0.70890   0.28085   Biso      1.000     O          -0.829454           
         O74       1.0000    0.23440   0.77950   0.05048   Biso      1.000     O          -0.455706           
         O75       1.0000    0.38930   0.51730   0.21891   Biso      1.000     O          -0.602718           
         O76       1.0000    0.10440   0.55770   0.06039   Biso      1.000     O          -0.677046           
         O77       1.0000    0.73440   0.72050   0.44952   Biso      1.000     O          -0.450714           
         O78       1.0000    0.85810   0.88220   0.45379   Biso      1.000     O          -0.800976           
         O79       1.0000    0.49650   0.60110   0.86844   Biso      1.000     O          -0.635848           
         O80       1.0000    0.39560   0.55770   0.93961   Biso      1.000     O          -0.677046           
         O81       1.0000    0.31450   0.69270   0.82488   Biso      1.000     O          -0.571225           
         O82       1.0000    0.09200   0.75780   0.88759   Biso      1.000     O          -0.495374           
         O83       1.0000    0.26560   0.77950   0.94952   Biso      1.000     O          -0.455703           
         O84       1.0000    0.14190   0.61780   0.95379   Biso      1.000     O          -0.800187           
         O85       1.0000    0.61070   0.98270   0.71891   Biso      1.000     O          -0.602579           
         O86       1.0000    0.87850   0.79110   0.78085   Biso      1.000     O          -0.834818           
         O87       1.0000    0.37790   0.00860   0.72726   Biso      1.000     O          -0.568934           
         O88       1.0000    0.60270   0.81470   0.73552   Biso      1.000     O          -0.645039           
         O89       1.0000    0.90800   0.74220   0.38759   Biso      1.000     O          -0.500085           
         O90       1.0000    0.68550   0.80730   0.32488   Biso      1.000     O          -0.572853           
         O91       1.0000    0.60440   0.94230   0.43961   Biso      1.000     O          -0.677785           
         O92       1.0000    0.00350   0.10110   0.36844   Biso      1.000     O          -0.635835           
         O93       1.0000    0.37850   0.70890   0.71915   Biso      1.000     O          -0.829455           
         O94       1.0000    0.40130   0.82760   0.64054   Biso      1.000     O          -0.528603           
         O95       1.0000    0.21670   0.83780   0.69278   Biso      1.000     O          -0.828675           
         O96       1.0000    0.50350   0.89890   0.36844   Biso      1.000     O          -0.636508           
         P1        1.0000    0.15275   0.81144   0.30396   Biso      1.000     P          1.296185  
         P2        1.0000    0.31099   0.70174   0.08165   Biso      1.000     P          1.197878  
         P3        1.0000    0.65275   0.68856   0.19604   Biso      1.000     P          1.299402  
         P4        1.0000    0.81099   0.79826   0.41835   Biso      1.000     P          1.194366  
         P5        1.0000    0.34725   0.81144   0.69604   Biso      1.000     P          1.296186  
         P6        1.0000    0.18901   0.70174   0.91835   Biso      1.000     P          1.197884  
         P7        1.0000    0.84725   0.68856   0.80396   Biso      1.000     P          1.299409  
         P8        1.0000    0.84725   0.18856   0.69604   Biso      1.000     P          1.299426  
         P9        1.0000    0.68901   0.29826   0.91835   Biso      1.000     P          1.194397  
         P10       1.0000    0.34725   0.31144   0.80396   Biso      1.000     P          1.296164  
         P11       1.0000    0.65275   0.18856   0.30396   Biso      1.000     P          1.299434  
         P12       1.0000    0.81099   0.29826   0.08165   Biso      1.000     P          1.194397  
         P13       1.0000    0.15275   0.31144   0.19604   Biso      1.000     P          1.296167  
         P14       1.0000    0.31099   0.20174   0.41835   Biso      1.000     P          1.197881  
         P15       1.0000    0.68901   0.79826   0.58165   Biso      1.000     P          1.194365  
         P16       1.0000    0.18901   0.20174   0.58165   Biso      1.000     P          1.197879 