
##########################################################################
#               Crystallographic Information Format file
#               Produced by PyCifRW module
#
#  This is a CIF file.  CIF has been adopted by the International
#  Union of Crystallography as the standard for data archiving and
#  transmission.
#
#  For information on this file format, follow the CIF links at
#  http://www.iucr.org
##########################################################################

data_image0

_cell_length_a                          14.766
_cell_length_b                          17.6409
_cell_length_c                          17.6409
_cell_angle_alpha                       79.9123
_cell_angle_beta                        65.2591
_cell_angle_gamma                       65.259
_symmetry_space_group_name_H-M          'P 1'
_symmetry_int_tables_number             1
loop_
  _symmetry_equiv_pos_as_xyz
         'x, y, z' 
loop_
  _atom_site_label
  _atom_site_occupancy
  _atom_site_fract_x
  _atom_site_fract_y
  _atom_site_fract_z
  _atom_site_thermal_displace_type
  _atom_site_B_iso_or_equiv
  _atom_site_type_symbol
  _atom_site_charge
         C1        1.0000    0.08690   0.76860   0.52340   Biso      1.000     C          0.582057  
         C2        1.0000    0.11780   0.90090   0.23310   Biso      1.000     C          0.333624  
         C3        1.0000    0.77440   0.84530   0.41910   Biso      1.000     C          -0.162809           
         C4        1.0000    0.79040   0.68310   0.50090   Biso      1.000     C          -0.161807           
         C5        1.0000    0.80300   0.74610   0.53090   Biso      1.000     C          -0.094495           
         C6        1.0000    0.78520   0.82770   0.49710   Biso      1.000     C          -0.090501           
         C7        1.0000    0.77470   0.63920   0.38560   Biso      1.000     C          -0.210072           
         C8        1.0000    0.76070   0.80070   0.30650   Biso      1.000     C          -0.132848           
         C9        1.0000    0.76660   0.78160   0.38620   Biso      1.000     C          0.082327  
         C10       1.0000    0.78070   0.70130   0.42250   Biso      1.000     C          0.098861  
         C11       1.0000    0.75620   0.73740   0.27020   Biso      1.000     C          -0.1491   
         C12       1.0000    0.76340   0.65840   0.30780   Biso      1.000     C          0.006848  
         C13       1.0000    0.82090   0.47770   0.09450   Biso      1.000     C          0.573011  
         C14       1.0000    0.95040   0.98130   0.25270   Biso      1.000     C          -0.039064           
         C15       1.0000    0.77130   0.52170   0.17430   Biso      1.000     C          0.005555  
         C16       1.0000    0.68440   0.51870   0.24730   Biso      1.000     C          -0.038485           
         C17       1.0000    0.75180   0.59910   0.26690   Biso      1.000     C          0.332507  
         C18       1.0000    0.29860   0.59450   0.52230   Biso      1.000     C          0.575662  
         C19       1.0000    0.42180   0.80780   0.34160   Biso      1.000     C          0.005051  
         C20       1.0000    0.49360   0.77020   0.26260   Biso      1.000     C          -0.14656  
         C21       1.0000    0.48200   0.92250   0.29870   Biso      1.000     C          0.097682  
         C22       1.0000    0.54820   0.88620   0.21840   Biso      1.000     C          0.08468   
         C23       1.0000    0.56140   0.80650   0.19930   Biso      1.000     C          -0.135665           
         C24       1.0000    0.41390   0.88560   0.36080   Biso      1.000     C          -0.208167           
         C25       1.0000    0.61290   0.99710   0.17230   Biso      1.000     C          -0.094405           
         C26       1.0000    0.54910   0.03090   0.25390   Biso      1.000     C          -0.091497           
         C27       1.0000    0.47350   0.00090   0.31690   Biso      1.000     C          -0.16171  
         C28       1.0000    0.61030   0.47660   0.26860   Biso      1.000     C          0.587179  
         C29       1.0000    0.61970   0.91910   0.15470   Biso      1.000     C          -0.162182           
         C30       1.0000    0.85550   0.02340   0.23140   Biso      1.000     C          0.586425  
         C31       1.0000    0.89310   0.02230   0.40550   Biso      1.000     C          0.576585  
         C32       1.0000    0.35090   0.76690   0.40090   Biso      1.000     C          0.331441  
         C33       1.0000    0.19350   0.58090   0.34530   Biso      1.000     C          -0.164313           
         C34       1.0000    0.29130   0.49910   0.18310   Biso      1.000     C          -0.160545           
         C35       1.0000    0.33390   0.46910   0.24610   Biso      1.000     C          -0.089206           
         C36       1.0000    0.28230   0.50290   0.32770   Biso      1.000     C          -0.092936           
         C37       1.0000    0.16030   0.61440   0.13920   Biso      1.000     C          -0.211431           
         C38       1.0000    0.06720   0.69350   0.30070   Biso      1.000     C          -0.134415           
         C39       1.0000    0.15280   0.61380   0.28160   Biso      1.000     C          0.083844  
         C40       1.0000    0.20320   0.57750   0.20130   Biso      1.000     C          0.096566  
         C41       1.0000    0.02640   0.72980   0.23740   Biso      1.000     C          -0.14801  
         C42       1.0000    0.07120   0.69220   0.15840   Biso      1.000     C          0.007472  
         C43       1.0000    0.91540   0.90550   0.97770   Biso      1.000     C          0.5737    
         C44       1.0000    0.96730   0.97830   0.32570   Biso      1.000     C          0.006741  
         C45       1.0000    0.94560   0.82570   0.02170   Biso      1.000     C          0.006473  
         C46       1.0000    0.93170   0.75270   0.01870   Biso      1.000     C          -0.037325           
         C47       1.0000    0.01870   0.73310   0.09910   Biso      1.000     C          0.332626  
         C48       1.0000    0.53880   0.65470   0.08090   Biso      1.000     C          -0.163962           
         C49       1.0000    0.47440   0.81690   0.99910   Biso      1.000     C          -0.160829           
         C50       1.0000    0.58000   0.75390   0.96910   Biso      1.000     C          -0.088605           
         C51       1.0000    0.61000   0.67230   0.00290   Biso      1.000     C          -0.092321           
         C52       1.0000    0.29950   0.86080   0.11440   Biso      1.000     C          -0.209722           
         C53       1.0000    0.36790   0.69930   0.19350   Biso      1.000     C          -0.133305           
         C54       1.0000    0.43440   0.71840   0.11380   Biso      1.000     C          0.082469  
         C55       1.0000    0.40450   0.79870   0.07750   Biso      1.000     C          0.097235  
         C56       1.0000    0.26380   0.76260   0.22980   Biso      1.000     C          -0.148796           
         C57       1.0000    0.22960   0.84160   0.19220   Biso      1.000     C          0.007774  
         C58       1.0000    0.87890   0.73140   0.97660   Biso      1.000     C          0.583333  
         C59       1.0000    0.24820   0.40090   0.73310   Biso      1.000     C          0.332507  
         C60       1.0000    0.31560   0.48130   0.75270   Biso      1.000     C          -0.038486           
         C61       1.0000    0.38970   0.52340   0.73140   Biso      1.000     C          0.587179  
         C62       1.0000    0.08460   0.09450   0.02230   Biso      1.000     C          0.5737    
         C63       1.0000    0.92880   0.30780   0.84160   Biso      1.000     C          0.007473  
         C64       1.0000    0.97360   0.27020   0.76260   Biso      1.000     C          -0.14801  
         C65       1.0000    0.79680   0.42250   0.79870   Biso      1.000     C          0.096567  
         C66       1.0000    0.84720   0.38620   0.71840   Biso      1.000     C          0.083845  
         C67       1.0000    0.93280   0.30650   0.69930   Biso      1.000     C          -0.134415           
         C68       1.0000    0.83970   0.38560   0.86080   Biso      1.000     C          -0.211432           
         C69       1.0000    0.71770   0.49710   0.67230   Biso      1.000     C          -0.092935           
         C70       1.0000    0.66610   0.53090   0.75390   Biso      1.000     C          -0.089206           
         C71       1.0000    0.70870   0.50090   0.81690   Biso      1.000     C          -0.160545           
         C72       1.0000    0.80650   0.41910   0.65470   Biso      1.000     C          -0.164314           
         C73       1.0000    0.64910   0.23310   0.59910   Biso      1.000     C          0.331441  
         C74       1.0000    0.05440   0.17430   0.97830   Biso      1.000     C          0.006473  
         C75       1.0000    0.79690   0.25270   0.51870   Biso      1.000     C          -0.035057           
         C76       1.0000    0.70700   0.32570   0.52170   Biso      1.000     C          0.001529  
         C77       1.0000    0.70140   0.40550   0.47770   Biso      1.000     C          0.575662  
         C78       1.0000    0.57820   0.19220   0.65840   Biso      1.000     C          0.005051  
         C79       1.0000    0.50640   0.22980   0.73740   Biso      1.000     C          -0.14656  
         C80       1.0000    0.51800   0.07750   0.70130   Biso      1.000     C          0.097682  
         C81       1.0000    0.45180   0.11380   0.78160   Biso      1.000     C          0.08468   
         C82       1.0000    0.43860   0.19350   0.80070   Biso      1.000     C          -0.135665           
         C83       1.0000    0.58610   0.11440   0.63920   Biso      1.000     C          -0.208167           
         C84       1.0000    0.38710   0.00290   0.82770   Biso      1.000     C          -0.094405           
         C85       1.0000    0.45090   0.96910   0.74610   Biso      1.000     C          -0.091497           
         C86       1.0000    0.52650   0.99910   0.68310   Biso      1.000     C          -0.16171  
         C87       1.0000    0.38030   0.08090   0.84530   Biso      1.000     C          -0.162182           
         C88       1.0000    0.91310   0.23140   0.47660   Biso      1.000     C          0.582057  
         C89       1.0000    0.12110   0.26860   0.02340   Biso      1.000     C          0.583332  
         C90       1.0000    0.06830   0.24730   0.98130   Biso      1.000     C          -0.037325           
         C91       1.0000    0.98130   0.26690   0.90090   Biso      1.000     C          0.332626  
         C92       1.0000    0.22870   0.47830   0.82570   Biso      1.000     C          0.005555  
         C93       1.0000    0.17910   0.52230   0.90550   Biso      1.000     C          0.573012  
         C94       1.0000    0.23660   0.34160   0.69220   Biso      1.000     C          0.006849  
         C95       1.0000    0.24380   0.26260   0.72980   Biso      1.000     C          -0.1491   
         C96       1.0000    0.21930   0.29870   0.57750   Biso      1.000     C          0.098861  
         C97       1.0000    0.23340   0.21840   0.61380   Biso      1.000     C          0.082327  
         C98       1.0000    0.23930   0.19930   0.69350   Biso      1.000     C          -0.132848           
         C99       1.0000    0.22530   0.36080   0.61440   Biso      1.000     C          -0.210072           
         C100      1.0000    0.21480   0.17230   0.50290   Biso      1.000     C          -0.0905   
         C101      1.0000    0.19700   0.25390   0.46910   Biso      1.000     C          -0.094495           
         C102      1.0000    0.20960   0.31690   0.49910   Biso      1.000     C          -0.161807           
         C103      1.0000    0.22560   0.15470   0.58090   Biso      1.000     C          -0.16281  
         C104      1.0000    0.88220   0.09910   0.76690   Biso      1.000     C          0.333624  
         C105      1.0000    0.04960   0.01870   0.74730   Biso      1.000     C          -0.039064           
         C106      1.0000    0.14450   0.97660   0.76860   Biso      1.000     C          0.586425  
         C107      1.0000    0.03270   0.02170   0.67430   Biso      1.000     C          0.006741  
         C108      1.0000    0.10690   0.97770   0.59450   Biso      1.000     C          0.576586  
         C109      1.0000    0.77040   0.15840   0.80780   Biso      1.000     C          0.007774  
         C110      1.0000    0.73620   0.23740   0.77020   Biso      1.000     C          -0.148796           
         C111      1.0000    0.59550   0.20130   0.92250   Biso      1.000     C          0.097236  
         C112      1.0000    0.56560   0.28160   0.88620   Biso      1.000     C          0.08247   
         C113      1.0000    0.63210   0.30070   0.80650   Biso      1.000     C          -0.133305           
         C114      1.0000    0.70050   0.13920   0.88560   Biso      1.000     C          -0.209722           
         C115      1.0000    0.39000   0.32770   0.99710   Biso      1.000     C          -0.09232  
         C116      1.0000    0.42000   0.24610   0.03090   Biso      1.000     C          -0.088605           
         C117      1.0000    0.52560   0.18310   0.00090   Biso      1.000     C          -0.160829           
         C118      1.0000    0.46120   0.34530   0.91910   Biso      1.000     C          -0.163963           
         C119      1.0000    0.20310   0.74730   0.48130   Biso      1.000     C          -0.035057           
         C120      1.0000    0.29300   0.67430   0.47830   Biso      1.000     C          0.001529  
         Cd1       1.0000    0.53773   0.58280   0.42678   Biso      1.000     Cd          0.948315  
         Cd2       1.0000    0.04731   0.91720   0.07322   Biso      1.000     Cd          0.947681  
         Cd3       1.0000    0.96451   0.57322   0.08280   Biso      1.000     Cd          0.949215  
         Cd4       1.0000    0.12053   0.92678   0.41720   Biso      1.000     Cd          0.948438  
         Cd5       1.0000    0.46227   0.41720   0.57322   Biso      1.000     Cd          0.948315  
         Cd6       1.0000    0.95269   0.08280   0.92678   Biso      1.000     Cd          0.947681  
         Cd7       1.0000    0.03549   0.42678   0.91720   Biso      1.000     Cd          0.949215  
         Cd8       1.0000    0.87947   0.07322   0.58280   Biso      1.000     Cd          0.948438  
         H1        1.0000    0.33200   0.10860   0.89560   Biso      1.000     H          0.120244  
         H2        1.0000    0.84240   0.83140   0.93080   Biso      1.000     H          0.40101   
         H3        1.0000    0.96740   0.78060   0.24840   Biso      1.000     H          0.104415  
         H4        1.0000    0.03970   0.72010   0.35130   Biso      1.000     H          0.129906  
         H5        1.0000    0.18960   0.58850   0.08790   Biso      1.000     H          0.134731  
         H6        1.0000    0.30670   0.47410   0.36930   Biso      1.000     H          0.11408   
         H7        1.0000    0.10460   0.66860   0.56920   Biso      1.000     H          0.400558  
         H8        1.0000    0.31880   0.46980   0.13420   Biso      1.000     H          0.132193  
         H9        1.0000    0.16380   0.60860   0.39560   Biso      1.000     H          0.121183  
         H10       1.0000    0.55940   0.60440   0.10860   Biso      1.000     H          0.120894  
         H11       1.0000    0.49640   0.71940   0.25160   Biso      1.000     H          0.104297  
         H12       1.0000    0.40010   0.42410   0.23310   Biso      1.000     H          0.110064  
         H13       1.0000    0.45300   0.86580   0.96980   Biso      1.000     H          0.132335  
         H14       1.0000    0.39100   0.64870   0.22010   Biso      1.000     H          0.130552  
         H15       1.0000    0.67600   0.63070   0.97410   Biso      1.000     H          0.113035  
         H16       1.0000    0.27750   0.91210   0.08850   Biso      1.000     H          0.134019  
         H17       1.0000    0.61110   0.77990   0.14870   Biso      1.000     H          0.129964  
         H18       1.0000    0.21580   0.75160   0.28060   Biso      1.000     H          0.103914  
         H19       1.0000    0.77320   0.06920   0.33140   Biso      1.000     H          0.401086  
         H20       1.0000    0.77240   0.89560   0.39140   Biso      1.000     H          0.120157  
         H21       1.0000    0.78860   0.63420   0.53020   Biso      1.000     H          0.133322  
         H22       1.0000    0.82420   0.73310   0.57590   Biso      1.000     H          0.111655  
         H23       1.0000    0.77810   0.58790   0.41150   Biso      1.000     H          0.13409   
         H24       1.0000    0.75980   0.85130   0.27990   Biso      1.000     H          0.13027   
         H25       1.0000    0.74800   0.74840   0.21940   Biso      1.000     H          0.104092  
         H26       1.0000    0.67380   0.43080   0.16860   Biso      1.000     H          0.400542  
         H27       1.0000    0.63320   0.76690   0.92410   Biso      1.000     H          0.109375  
         H28       1.0000    0.36600   0.91150   0.41210   Biso      1.000     H          0.133962  
         H29       1.0000    0.78080   0.86930   0.52590   Biso      1.000     H          0.113423  
         H30       1.0000    0.55730   0.07590   0.26690   Biso      1.000     H          0.110892  
         H31       1.0000    0.03260   0.21940   0.75160   Biso      1.000     H          0.104415  
         H32       1.0000    0.65010   0.02590   0.13070   Biso      1.000     H          0.114696  
         H33       1.0000    0.81040   0.41150   0.91210   Biso      1.000     H          0.134731  
         H34       1.0000    0.69330   0.52590   0.63070   Biso      1.000     H          0.11408   
         H35       1.0000    0.59990   0.57590   0.76690   Biso      1.000     H          0.110064  
         H36       1.0000    0.68120   0.53020   0.86580   Biso      1.000     H          0.132193  
         H37       1.0000    0.15760   0.16860   0.06920   Biso      1.000     H          0.40101   
         H38       1.0000    0.83620   0.39140   0.60440   Biso      1.000     H          0.121183  
         H39       1.0000    0.50360   0.28060   0.74840   Biso      1.000     H          0.104297  
         H40       1.0000    0.38890   0.22010   0.85130   Biso      1.000     H          0.129964  
         H41       1.0000    0.63400   0.08850   0.58790   Biso      1.000     H          0.133962  
         H42       1.0000    0.34990   0.97410   0.86930   Biso      1.000     H          0.114696  
         H43       1.0000    0.44270   0.92410   0.73310   Biso      1.000     H          0.110892  
         H44       1.0000    0.57720   0.96980   0.63420   Biso      1.000     H          0.132706  
         H45       1.0000    0.89540   0.33140   0.43080   Biso      1.000     H          0.400558  
         H46       1.0000    0.44060   0.39560   0.89140   Biso      1.000     H          0.120894  
         H47       1.0000    0.96030   0.27990   0.64870   Biso      1.000     H          0.129906  
         H48       1.0000    0.36680   0.23310   0.07590   Biso      1.000     H          0.109375  
         H49       1.0000    0.42280   0.03020   0.36580   Biso      1.000     H          0.132706  
         H50       1.0000    0.66800   0.89140   0.10440   Biso      1.000     H          0.120244  
         H51       1.0000    0.32620   0.56920   0.83140   Biso      1.000     H          0.400542  
         H52       1.0000    0.25200   0.25160   0.78060   Biso      1.000     H          0.104092  
         H53       1.0000    0.54700   0.13420   0.03020   Biso      1.000     H          0.132335  
         H54       1.0000    0.22190   0.41210   0.58850   Biso      1.000     H          0.13409   
         H55       1.0000    0.21920   0.13070   0.47410   Biso      1.000     H          0.113423  
         H56       1.0000    0.17580   0.26690   0.42410   Biso      1.000     H          0.111655  
         H57       1.0000    0.24020   0.14870   0.72010   Biso      1.000     H          0.13027   
         H58       1.0000    0.22760   0.10440   0.60860   Biso      1.000     H          0.120157  
         H59       1.0000    0.22680   0.93080   0.66860   Biso      1.000     H          0.401086  
         H60       1.0000    0.78420   0.24840   0.71940   Biso      1.000     H          0.103914  
         H61       1.0000    0.60900   0.35130   0.77990   Biso      1.000     H          0.130552  
         H62       1.0000    0.72250   0.08790   0.91150   Biso      1.000     H          0.134019  
         H63       1.0000    0.32400   0.36930   0.02590   Biso      1.000     H          0.113035  
         H64       1.0000    0.21140   0.36580   0.46980   Biso      1.000     H          0.133322  
         N1        1.0000    0.61600   0.31160   0.57240   Biso      1.000     N          -0.367534           
         N2        1.0000    0.75910   0.19410   0.56950   Biso      1.000     N          -0.376215           
         N3        1.0000    0.00000   0.18840   0.92760   Biso      1.000     N          -0.371554           
         N4        1.0000    0.02270   0.30590   0.93050   Biso      1.000     N          -0.376635           
         N5        1.0000    0.92760   0.07240   0.68840   Biso      1.000     N          -0.370818           
         N6        1.0000    0.95320   0.06950   0.80590   Biso      1.000     N          -0.377547           
         N7        1.0000    0.18840   0.42760   0.81160   Biso      1.000     N          -0.370228           
         N8        1.0000    0.32860   0.43050   0.69410   Biso      1.000     N          -0.376592           
         N9        1.0000    0.24090   0.80590   0.43050   Biso      1.000     N          -0.376215           
         N10       1.0000    0.00000   0.81160   0.07240   Biso      1.000     N          -0.371554           
         N11       1.0000    0.97730   0.69410   0.06950   Biso      1.000     N          -0.376635           
         N12       1.0000    0.07240   0.92760   0.31160   Biso      1.000     N          -0.370818           
         N13       1.0000    0.04680   0.93050   0.19410   Biso      1.000     N          -0.377547           
         N14       1.0000    0.81160   0.57240   0.18840   Biso      1.000     N          -0.370228           
         N15       1.0000    0.67140   0.56950   0.30590   Biso      1.000     N          -0.376592           
         N16       1.0000    0.38400   0.68840   0.42760   Biso      1.000     N          -0.367534           
         O1        1.0000    0.37620   0.57120   0.78800   Biso      1.000     O          -0.495824           
         O2        1.0000    0.09730   0.51220   0.95880   Biso      1.000     O          -0.54642  
         O3        1.0000    0.21870   0.56900   0.91640   Biso      1.000     O          -0.554515           
         O4        1.0000    0.13980   0.98490   0.83830   Biso      1.000     O          -0.499113           
         O5        1.0000    0.23540   0.92880   0.71200   Biso      1.000     O          -0.496138           
         O6        1.0000    0.06830   0.98780   0.54120   Biso      1.000     O          -0.548972           
         O7        1.0000    0.16420   0.21200   0.07120   Biso      1.000     O          -0.493698           
         O8        1.0000    0.12470   0.33830   0.01510   Biso      1.000     O          -0.498466           
         O9        1.0000    0.46300   0.51510   0.66170   Biso      1.000     O          -0.498918           
         O10       1.0000    0.05610   0.04120   0.01220   Biso      1.000     O          -0.546615           
         O11       1.0000    0.13510   0.08360   0.06900   Biso      1.000     O          -0.554774           
         O12       1.0000    0.97810   0.16170   0.48490   Biso      1.000     O          -0.497421           
         O13       1.0000    0.94740   0.28800   0.42880   Biso      1.000     O          -0.494786           
         O14       1.0000    0.20410   0.93100   0.58360   Biso      1.000     O          -0.555088           
         O15       1.0000    0.21230   0.58360   0.56900   Biso      1.000     O          -0.553569           
         O16       1.0000    0.02190   0.83830   0.51510   Biso      1.000     O          -0.497421           
         O17       1.0000    0.05260   0.71200   0.57120   Biso      1.000     O          -0.494786           
         O18       1.0000    0.86490   0.91640   0.93100   Biso      1.000     O          -0.554774           
         O19       1.0000    0.94390   0.95880   0.98780   Biso      1.000     O          -0.546615           
         O20       1.0000    0.83580   0.78800   0.92880   Biso      1.000     O          -0.493698           
         O21       1.0000    0.87530   0.66170   0.98490   Biso      1.000     O          -0.498466           
         O22       1.0000    0.79590   0.06900   0.41640   Biso      1.000     O          -0.555088           
         O23       1.0000    0.93170   0.01220   0.45880   Biso      1.000     O          -0.548972           
         O24       1.0000    0.76460   0.07120   0.28800   Biso      1.000     O          -0.496138           
         O25       1.0000    0.86020   0.01510   0.16170   Biso      1.000     O          -0.499113           
         O26       1.0000    0.78130   0.43100   0.08360   Biso      1.000     O          -0.554515           
         O27       1.0000    0.90270   0.48780   0.04120   Biso      1.000     O          -0.54642  
         O28       1.0000    0.62380   0.42880   0.21200   Biso      1.000     O          -0.495824           
         O29       1.0000    0.53700   0.48490   0.33830   Biso      1.000     O          -0.498918           
         O30       1.0000    0.60950   0.45880   0.48780   Biso      1.000     O          -0.548984           
         O31       1.0000    0.39050   0.54120   0.51220   Biso      1.000     O          -0.548984           
         O32       1.0000    0.78770   0.41640   0.43100   Biso      1.000     O          -0.553569 