
##########################################################################
#               Crystallographic Information Format file
#               Produced by PyCifRW module
#
#  This is a CIF file.  CIF has been adopted by the International
#  Union of Crystallography as the standard for data archiving and
#  transmission.
#
#  For information on this file format, follow the CIF links at
#  http://www.iucr.org
##########################################################################

data_image0

_cell_length_a                          6.957
_cell_length_b                          15.2588
_cell_length_c                          15.2588
_cell_angle_alpha                       84.7587
_cell_angle_beta                        76.8226
_cell_angle_gamma                       76.8226
_symmetry_space_group_name_H-M          'P 1'
_symmetry_int_tables_number             1
loop_
  _symmetry_equiv_pos_as_xyz
         'x, y, z' 
loop_
  _atom_site_label
  _atom_site_occupancy
  _atom_site_fract_x
  _atom_site_fract_y
  _atom_site_fract_z
  _atom_site_thermal_displace_type
  _atom_site_B_iso_or_equiv
  _atom_site_type_symbol
  _atom_site_charge
         C1        1.0000    0.83200   0.99200   0.84400   Biso      1.000     C          0.5381020000000001  
         C2        1.0000    0.97400   0.00200   0.55000   Biso      1.000     C          0.072479  
         C3        1.0000    0.87900   0.00100   0.74100   Biso      1.000     C          -0.038455           
         C4        1.0000    0.52600   0.45000   0.99800   Biso      1.000     C          0.072479  
         C5        1.0000    0.62100   0.25900   0.99900   Biso      1.000     C          -0.038454           
         C6        1.0000    0.66800   0.15600   0.00800   Biso      1.000     C          0.5381020000000001  
         C7        1.0000    0.02600   0.99800   0.45000   Biso      1.000     C          0.072479  
         C8        1.0000    0.12100   0.99900   0.25900   Biso      1.000     C          -0.038454           
         C9        1.0000    0.16800   0.00800   0.15600   Biso      1.000     C          0.5381020000000001  
         C10       1.0000    0.37900   0.74100   0.00100   Biso      1.000     C          -0.038454           
         C11       1.0000    0.33200   0.84400   0.99200   Biso      1.000     C          0.5381020000000001  
         C12       1.0000    0.23500   0.99700   0.40500   Biso      1.000     C          -0.143566           
         C13       1.0000    0.28260   0.99600   0.30600   Biso      1.000     C          -0.088887           
         C14       1.0000    0.26500   0.59500   0.00300   Biso      1.000     C          -0.143565           
         C15       1.0000    0.47400   0.55000   0.00200   Biso      1.000     C          0.072479  
         C16       1.0000    0.13700   0.00300   0.59500   Biso      1.000     C          -0.145688           
         C17       1.0000    0.58460   0.69400   0.00400   Biso      1.000     C          -0.086562           
         C18       1.0000    0.21740   0.69400   0.00400   Biso      1.000     C          -0.088888           
         C19       1.0000    0.63700   0.59500   0.00300   Biso      1.000     C          -0.145688           
         C20       1.0000    0.91540   0.99600   0.30600   Biso      1.000     C          -0.086563           
         C21       1.0000    0.86300   0.99700   0.40500   Biso      1.000     C          -0.145688           
         C22       1.0000    0.73500   0.40500   0.99700   Biso      1.000     C          -0.143566           
         C23       1.0000    0.78260   0.30600   0.99600   Biso      1.000     C          -0.088888           
         C24       1.0000    0.76500   0.00300   0.59500   Biso      1.000     C          -0.143566           
         C25       1.0000    0.41540   0.30600   0.99600   Biso      1.000     C          -0.086562           
         C26       1.0000    0.36300   0.40500   0.99700   Biso      1.000     C          -0.145688           
         C27       1.0000    0.08460   0.00400   0.69400   Biso      1.000     C          -0.086563           
         C28       1.0000    0.71740   0.00400   0.69400   Biso      1.000     C          -0.088887           
         H1        1.0000    0.55552   0.00709   0.73296   Biso      1.000     H          0.129636  
         H2        1.0000    0.70138   0.99697   0.44261   Biso      1.000     H          0.11121199999999999           
         H3        1.0000    0.94448   0.26704   0.99291   Biso      1.000     H          0.129636  
         H4        1.0000    0.85904   0.44261   0.99697   Biso      1.000     H          0.109864  
         H5        1.0000    0.64096   0.00303   0.55739   Biso      1.000     H          0.109864  
         H6        1.0000    0.05552   0.73296   0.00709   Biso      1.000     H          0.129636  
         H7        1.0000    0.20138   0.44261   0.99697   Biso      1.000     H          0.11121199999999999           
         H8        1.0000    0.20443   0.00709   0.73296   Biso      1.000     H          0.128031  
         H9        1.0000    0.29862   0.00303   0.55739   Biso      1.000     H          0.11121199999999999           
         H10       1.0000    0.14096   0.55739   0.00303   Biso      1.000     H          0.109864  
         H11       1.0000    0.79557   0.99291   0.26704   Biso      1.000     H          0.128031  
         H12       1.0000    0.29557   0.26704   0.99291   Biso      1.000     H          0.128032  
         H13       1.0000    0.79862   0.55739   0.00303   Biso      1.000     H          0.11121199999999999           
         H14       1.0000    0.35904   0.99697   0.44261   Biso      1.000     H          0.109864  
         H15       1.0000    0.44448   0.99291   0.26704   Biso      1.000     H          0.129637  
         H16       1.0000    0.70443   0.73296   0.00709   Biso      1.000     H          0.128032  
         O1        1.0000    0.25000   0.03800   0.96200   Biso      1.000     O          -0.9376180000000001           
         O2        1.0000    0.75000   0.96200   0.03800   Biso      1.000     O          -0.9376180000000001           
         O3        1.0000    0.35850   0.01350   0.11550   Biso      1.000     O          -0.546192           
         O4        1.0000    0.14150   0.88450   0.98650   Biso      1.000     O          -0.546192           
         O5        1.0000    0.98750   0.98650   0.88450   Biso      1.000     O          -0.545859           
         O6        1.0000    0.51250   0.11550   0.01350   Biso      1.000     O          -0.545859           
         O7        1.0000    0.64150   0.98650   0.88450   Biso      1.000     O          -0.546192           
         O8        1.0000    0.85850   0.11550   0.01350   Biso      1.000     O          -0.546192           
         O9        1.0000    0.01250   0.01350   0.11550   Biso      1.000     O          -0.545859           
         O10       1.0000    0.48750   0.88450   0.98650   Biso      1.000     O          -0.545859           
         V1        1.0000    0.00000   0.00000   0.00000   Biso      1.000     V          1.9493880000000001  
         V2        1.0000    0.50000   0.00000   0.00000   Biso      1.000     V          1.949386 