
##########################################################################
#               Crystallographic Information Format file
#               Produced by PyCifRW module
#
#  This is a CIF file.  CIF has been adopted by the International
#  Union of Crystallography as the standard for data archiving and
#  transmission.
#
#  For information on this file format, follow the CIF links at
#  http://www.iucr.org
##########################################################################

data_image0

_cell_length_a                          10.8894
_cell_length_b                          10.8894
_cell_length_c                          19.6803
_cell_angle_alpha                       75.7156
_cell_angle_beta                        75.7156
_cell_angle_gamma                       64.6726
_symmetry_space_group_name_H-M          'P 1'
_symmetry_int_tables_number             1
loop_
  _symmetry_equiv_pos_as_xyz
         'x, y, z' 
loop_
  _atom_site_label
  _atom_site_occupancy
  _atom_site_fract_x
  _atom_site_fract_y
  _atom_site_fract_z
  _atom_site_thermal_displace_type
  _atom_site_B_iso_or_equiv
  _atom_site_type_symbol
  _atom_site_charge
         C1        1.0000    0.62640   0.67880   0.71030   Biso      1.000     C          -0.009531           
         C2        1.0000    0.24050   0.32710   0.30800   Biso      1.000     C          -0.093466           
         C3        1.0000    0.16410   0.35530   0.37400   Biso      1.000     C          -0.017979           
         C4        1.0000    0.22070   0.38070   0.42260   Biso      1.000     C          -0.098035           
         C5        1.0000    0.35390   0.37610   0.40490   Biso      1.000     C          -0.045541000000000005         
         C6        1.0000    0.43020   0.34680   0.33920   Biso      1.000     C          -0.101281           
         C7        1.0000    0.70180   0.54660   0.28270   Biso      1.000     C          0.5944659999999999  
         C8        1.0000    0.37360   0.32120   0.28970   Biso      1.000     C          -0.00953  
         C9        1.0000    0.63180   0.98300   0.10850   Biso      1.000     C          0.609536  
         C10       1.0000    0.67880   0.62640   0.21030   Biso      1.000     C          -0.009531           
         C11       1.0000    0.67290   0.75950   0.19200   Biso      1.000     C          -0.09346499999999999          
         C12       1.0000    0.64470   0.83590   0.12600   Biso      1.000     C          -0.017979           
         C13       1.0000    0.61930   0.77930   0.07740   Biso      1.000     C          -0.098035           
         C14       1.0000    0.62390   0.64610   0.09510   Biso      1.000     C          -0.045541000000000005         
         C15       1.0000    0.65320   0.56980   0.16080   Biso      1.000     C          -0.101281           
         C16       1.0000    0.59330   0.58450   0.04360   Biso      1.000     C          0.677122  
         C17       1.0000    0.41550   0.40670   0.45640   Biso      1.000     C          0.677122  
         C18       1.0000    0.01700   0.36820   0.39150   Biso      1.000     C          0.609536  
         C19       1.0000    0.45340   0.29820   0.21730   Biso      1.000     C          0.5944659999999999  
         C20       1.0000    0.34680   0.43020   0.83920   Biso      1.000     C          -0.101283           
         C21       1.0000    0.37610   0.35390   0.90490   Biso      1.000     C          -0.04554  
         C22       1.0000    0.38070   0.22070   0.92260   Biso      1.000     C          -0.098035           
         C23       1.0000    0.35530   0.16410   0.87400   Biso      1.000     C          -0.01798  
         C24       1.0000    0.32710   0.24050   0.80800   Biso      1.000     C          -0.093466           
         C25       1.0000    0.32120   0.37360   0.78970   Biso      1.000     C          -0.009529000000000001         
         C26       1.0000    0.40670   0.41550   0.95640   Biso      1.000     C          0.677122  
         C27       1.0000    0.36820   0.01700   0.89150   Biso      1.000     C          0.609536  
         C28       1.0000    0.29820   0.45340   0.71730   Biso      1.000     C          0.5944659999999999  
         C29       1.0000    0.56980   0.65320   0.66080   Biso      1.000     C          -0.10128200000000001          
         C30       1.0000    0.64610   0.62390   0.59510   Biso      1.000     C          -0.04554  
         C31       1.0000    0.77930   0.61930   0.57740   Biso      1.000     C          -0.098035           
         C32       1.0000    0.83590   0.64470   0.62600   Biso      1.000     C          -0.017979           
         C33       1.0000    0.75950   0.67290   0.69200   Biso      1.000     C          -0.09346499999999999          
         C34       1.0000    0.58450   0.59330   0.54360   Biso      1.000     C          0.677122  
         C35       1.0000    0.54660   0.70180   0.78270   Biso      1.000     C          0.5944659999999999  
         C36       1.0000    0.98300   0.63180   0.60850   Biso      1.000     C          0.609535  
         Er1       1.0000    0.59459   0.25507   0.08330   Biso      1.000     Er          2.02546   
         Er2       1.0000    0.25507   0.59459   0.58330   Biso      1.000     Er          2.02546   
         Er3       1.0000    0.74493   0.40541   0.41670   Biso      1.000     Er          2.02546   
         Er4       1.0000    0.40541   0.74493   0.91670   Biso      1.000     Er          2.02546   
         H1        1.0000    0.20150   0.31190   0.27550   Biso      1.000     H          0.13756400000000002           
         H2        1.0000    0.16940   0.40080   0.46680   Biso      1.000     H          0.138654  
         H3        1.0000    0.68810   0.79850   0.22450   Biso      1.000     H          0.13756400000000002           
         H4        1.0000    0.59920   0.83060   0.03320   Biso      1.000     H          0.138654  
         H5        1.0000    0.51940   0.34400   0.32750   Biso      1.000     H          0.13111099999999998           
         H6        1.0000    0.79850   0.68810   0.72450   Biso      1.000     H          0.13756400000000002           
         H7        1.0000    0.83060   0.59920   0.53320   Biso      1.000     H          0.138654  
         H8        1.0000    0.48060   0.65600   0.67250   Biso      1.000     H          0.13111099999999998           
         H9        1.0000    0.31190   0.20150   0.77550   Biso      1.000     H          0.13756400000000002           
         H10       1.0000    0.40080   0.16940   0.96680   Biso      1.000     H          0.138654  
         H11       1.0000    0.65600   0.48060   0.17250   Biso      1.000     H          0.13111099999999998           
         H12       1.0000    0.34400   0.51940   0.82750   Biso      1.000     H          0.13111099999999998           
         O1        1.0000    0.47150   0.58010   0.56590   Biso      1.000     O          -0.738082           
         O2        1.0000    0.02850   0.66730   0.64970   Biso      1.000     O          -0.6722020000000001           
         O3        1.0000    0.05810   0.58950   0.55410   Biso      1.000     O          -0.655432           
         O4        1.0000    0.64940   0.58220   0.48160   Biso      1.000     O          -0.651193           
         O5        1.0000    0.41780   0.35060   0.01840   Biso      1.000     O          -0.651193           
         O6        1.0000    0.28340   0.57700   0.70360   Biso      1.000     O          -0.616552           
         O7        1.0000    0.33270   0.97150   0.85030   Biso      1.000     O          -0.6722020000000001           
         O8        1.0000    0.41050   0.94190   0.94590   Biso      1.000     O          -0.655432           
         O9        1.0000    0.42300   0.71660   0.79640   Biso      1.000     O          -0.616552           
         O10       1.0000    0.29340   0.39500   0.67030   Biso      1.000     O          -0.6146189999999999           
         O11       1.0000    0.60500   0.70660   0.82970   Biso      1.000     O          -0.6146189999999999           
         O12       1.0000    0.35060   0.41780   0.51840   Biso      1.000     O          -0.651193           
         O13       1.0000    0.58220   0.64940   0.98160   Biso      1.000     O          -0.651193           
         O14       1.0000    0.58950   0.05810   0.05410   Biso      1.000     O          -0.655431           
         O15       1.0000    0.66730   0.02850   0.14970   Biso      1.000     O          -0.6722020000000001           
         O16       1.0000    0.71660   0.42300   0.29640   Biso      1.000     O          -0.616552           
         O17       1.0000    0.70660   0.60500   0.32970   Biso      1.000     O          -0.6146189999999999           
         O18       1.0000    0.52850   0.41990   0.43410   Biso      1.000     O          -0.738083           
         O19       1.0000    0.94190   0.41050   0.44590   Biso      1.000     O          -0.655432           
         O20       1.0000    0.97150   0.33270   0.35030   Biso      1.000     O          -0.6722020000000001           
         O21       1.0000    0.57700   0.28340   0.20360   Biso      1.000     O          -0.616552           
         O22       1.0000    0.39500   0.29340   0.17030   Biso      1.000     O          -0.6146189999999999           
         O23       1.0000    0.58010   0.47150   0.06590   Biso      1.000     O          -0.738083           
         O24       1.0000    0.41990   0.52850   0.93410   Biso      1.000     O          -0.738083 