
##########################################################################
#               Crystallographic Information Format file
#               Produced by PyCifRW module
#
#  This is a CIF file.  CIF has been adopted by the International
#  Union of Crystallography as the standard for data archiving and
#  transmission.
#
#  For information on this file format, follow the CIF links at
#  http://www.iucr.org
##########################################################################

data_image0

_cell_length_a                          10.9548
_cell_length_b                          10.9548
_cell_length_c                          19.741
_cell_angle_alpha                       75.4848
_cell_angle_beta                        75.4848
_cell_angle_gamma                       64.1216
_symmetry_space_group_name_H-M          'P 1'
_symmetry_int_tables_number             1
loop_
  _symmetry_equiv_pos_as_xyz
         'x, y, z' 
loop_
  _atom_site_label
  _atom_site_occupancy
  _atom_site_fract_x
  _atom_site_fract_y
  _atom_site_fract_z
  _atom_site_thermal_displace_type
  _atom_site_B_iso_or_equiv
  _atom_site_type_symbol
  _atom_site_charge
         C1        1.0000    0.66500   0.85640   0.87480   Biso      1.000     C          -0.01914  
         C2        1.0000    0.85640   0.66500   0.37480   Biso      1.000     C          -0.019138           
         C3        1.0000    0.88200   0.72060   0.42370   Biso      1.000     C          -0.104218           
         C4        1.0000    0.84690   0.92930   0.33950   Biso      1.000     C          -0.104249           
         C5        1.0000    0.86610   0.51990   0.39250   Biso      1.000     C          0.609013  
         C6        1.0000    0.90610   0.91510   0.45630   Biso      1.000     C          0.680172  
         C7        1.0000    0.95520   0.79840   0.71780   Biso      1.000     C          0.598575  
         C8        1.0000    0.87360   0.82220   0.79020   Biso      1.000     C          -0.008065000000000001         
         C9        1.0000    0.74270   0.82750   0.80890   Biso      1.000     C          -0.09415  
         C10       1.0000    0.72060   0.88200   0.92370   Biso      1.000     C          -0.104217           
         C11       1.0000    0.85340   0.87620   0.90520   Biso      1.000     C          -0.047474           
         C12       1.0000    0.82750   0.74270   0.30890   Biso      1.000     C          -0.09415599999999999          
         C13       1.0000    0.92930   0.84690   0.83950   Biso      1.000     C          -0.10425  
         C14       1.0000    0.91510   0.90610   0.95630   Biso      1.000     C          0.680171  
         C15       1.0000    0.20160   0.04480   0.78220   Biso      1.000     C          0.5985699999999999  
         C16       1.0000    0.17780   0.12640   0.70980   Biso      1.000     C          -0.008067           
         C17       1.0000    0.17250   0.25730   0.69110   Biso      1.000     C          -0.094149           
         C18       1.0000    0.14360   0.33500   0.62520   Biso      1.000     C          -0.019139           
         C19       1.0000    0.11800   0.27940   0.57630   Biso      1.000     C          -0.104217           
         C20       1.0000    0.12380   0.14660   0.59480   Biso      1.000     C          -0.047475           
         C21       1.0000    0.15310   0.07070   0.66050   Biso      1.000     C          -0.104246           
         C22       1.0000    0.13390   0.48010   0.60750   Biso      1.000     C          0.609013  
         C23       1.0000    0.09390   0.08490   0.54370   Biso      1.000     C          0.680172  
         C24       1.0000    0.51990   0.86610   0.89250   Biso      1.000     C          0.609013  
         C25       1.0000    0.82220   0.87360   0.29020   Biso      1.000     C          -0.008061           
         C26       1.0000    0.87620   0.85340   0.40520   Biso      1.000     C          -0.047473           
         C27       1.0000    0.08490   0.09390   0.04370   Biso      1.000     C          0.680171  
         C28       1.0000    0.48010   0.13390   0.10750   Biso      1.000     C          0.609013  
         C29       1.0000    0.07070   0.15310   0.16050   Biso      1.000     C          -0.104253           
         C30       1.0000    0.14660   0.12380   0.09480   Biso      1.000     C          -0.047473           
         C31       1.0000    0.27940   0.11800   0.07630   Biso      1.000     C          -0.104217           
         C32       1.0000    0.33500   0.14360   0.12520   Biso      1.000     C          -0.019139           
         C33       1.0000    0.25730   0.17250   0.19110   Biso      1.000     C          -0.094157           
         C34       1.0000    0.12640   0.17780   0.20980   Biso      1.000     C          -0.008059           
         C35       1.0000    0.04480   0.20160   0.28220   Biso      1.000     C          0.5985739999999999  
         C36       1.0000    0.79840   0.95520   0.21780   Biso      1.000     C          0.5985689999999999  
         H1        1.0000    0.29550   0.18870   0.22330   Biso      1.000     H          0.13587   
         H2        1.0000    0.33070   0.09750   0.03230   Biso      1.000     H          0.139761  
         H3        1.0000    0.98170   0.15650   0.17220   Biso      1.000     H          0.128728  
         H4        1.0000    0.81130   0.70450   0.27670   Biso      1.000     H          0.13587   
         H5        1.0000    0.90250   0.66930   0.46770   Biso      1.000     H          0.139761  
         H6        1.0000    0.70450   0.81130   0.77670   Biso      1.000     H          0.13586900000000002           
         H7        1.0000    0.84350   0.01830   0.32780   Biso      1.000     H          0.128728  
         H8        1.0000    0.01830   0.84350   0.82780   Biso      1.000     H          0.128728  
         H9        1.0000    0.18870   0.29550   0.72330   Biso      1.000     H          0.13586900000000002           
         H10       1.0000    0.09750   0.33070   0.53230   Biso      1.000     H          0.139761  
         H11       1.0000    0.15650   0.98170   0.67220   Biso      1.000     H          0.128728  
         H12       1.0000    0.66930   0.90250   0.96770   Biso      1.000     H          0.139761  
         O1        1.0000    0.91700   0.02700   0.43430   Biso      1.000     O          -0.728292           
         O2        1.0000    0.89420   0.79940   0.67080   Biso      1.000     O          -0.616919           
         O3        1.0000    0.07760   0.78140   0.70440   Biso      1.000     O          -0.610979           
         O4        1.0000    0.47480   0.83860   0.84820   Biso      1.000     O          -0.671825           
         O5        1.0000    0.44870   0.89750   0.94890   Biso      1.000     O          -0.6507539999999999           
         O6        1.0000    0.10250   0.55130   0.55110   Biso      1.000     O          -0.6507539999999999           
         O7        1.0000    0.02700   0.91700   0.93430   Biso      1.000     O          -0.728291           
         O8        1.0000    0.16140   0.52520   0.65180   Biso      1.000     O          -0.671825           
         O9        1.0000    0.21860   0.92240   0.79560   Biso      1.000     O          -0.610977           
         O10       1.0000    0.91850   0.84970   0.51800   Biso      1.000     O          -0.657543           
         O11       1.0000    0.20060   0.10580   0.82920   Biso      1.000     O          -0.6169180000000001           
         O12       1.0000    0.84970   0.91850   0.01800   Biso      1.000     O          -0.6575439999999999           
         O13       1.0000    0.89750   0.44870   0.44890   Biso      1.000     O          -0.6507539999999999           
         O14       1.0000    0.08300   0.97300   0.56570   Biso      1.000     O          -0.728292           
         O15       1.0000    0.78140   0.07760   0.20440   Biso      1.000     O          -0.610977           
         O16       1.0000    0.79940   0.89420   0.17080   Biso      1.000     O          -0.6169180000000001           
         O17       1.0000    0.97300   0.08300   0.06570   Biso      1.000     O          -0.728291           
         O18       1.0000    0.15030   0.08150   0.98200   Biso      1.000     O          -0.6575439999999999           
         O19       1.0000    0.55130   0.10250   0.05110   Biso      1.000     O          -0.6507539999999999           
         O20       1.0000    0.52520   0.16140   0.15180   Biso      1.000     O          -0.671825           
         O21       1.0000    0.92240   0.21860   0.29560   Biso      1.000     O          -0.610979           
         O22       1.0000    0.10580   0.20060   0.32920   Biso      1.000     O          -0.6169180000000001           
         O23       1.0000    0.08150   0.15030   0.48200   Biso      1.000     O          -0.657543           
         O24       1.0000    0.83860   0.47480   0.34820   Biso      1.000     O          -0.671825           
         Tb1       1.0000    0.24686   0.90240   0.91708   Biso      1.000     Tb          2.02149   
         Tb2       1.0000    0.09760   0.75314   0.58292   Biso      1.000     Tb          2.02149   
         Tb3       1.0000    0.75314   0.09760   0.08292   Biso      1.000     Tb          2.02149   
         Tb4       1.0000    0.90240   0.24686   0.41708   Biso      1.000     Tb          2.02149 