
##########################################################################
#               Crystallographic Information Format file
#               Produced by PyCifRW module
#
#  This is a CIF file.  CIF has been adopted by the International
#  Union of Crystallography as the standard for data archiving and
#  transmission.
#
#  For information on this file format, follow the CIF links at
#  http://www.iucr.org
##########################################################################

data_image0

_cell_length_a                          10.9097
_cell_length_b                          10.9097
_cell_length_c                          19.51
_cell_angle_alpha                       75.4687
_cell_angle_beta                        75.4687
_cell_angle_gamma                       64.1082
_symmetry_space_group_name_H-M          'P 1'
_symmetry_int_tables_number             1
loop_
  _symmetry_equiv_pos_as_xyz
         'x, y, z' 
loop_
  _atom_site_label
  _atom_site_occupancy
  _atom_site_fract_x
  _atom_site_fract_y
  _atom_site_fract_z
  _atom_site_thermal_displace_type
  _atom_site_B_iso_or_equiv
  _atom_site_type_symbol
  _atom_site_charge
         C1        1.0000    0.66240   0.85840   0.87520   Biso      1.000     C          -0.019746           
         C2        1.0000    0.25990   0.17110   0.19130   Biso      1.000     C          -0.096711           
         C3        1.0000    0.12880   0.17540   0.20970   Biso      1.000     C          -0.010872           
         C4        1.0000    0.07080   0.15220   0.16090   Biso      1.000     C          -0.10602  
         C5        1.0000    0.48440   0.13040   0.10620   Biso      1.000     C          0.622788  
         C6        1.0000    0.04600   0.20200   0.28290   Biso      1.000     C          0.604176  
         C7        1.0000    0.90680   0.91380   0.45620   Biso      1.000     C          0.680364  
         C8        1.0000    0.33760   0.14160   0.12480   Biso      1.000     C          -0.019744           
         C9        1.0000    0.87820   0.85040   0.40490   Biso      1.000     C          -0.047981           
         C10       1.0000    0.85840   0.66240   0.37520   Biso      1.000     C          -0.019745           
         C11       1.0000    0.82890   0.74010   0.30870   Biso      1.000     C          -0.09671  
         C12       1.0000    0.82460   0.87120   0.29030   Biso      1.000     C          -0.010872           
         C13       1.0000    0.84780   0.92920   0.33910   Biso      1.000     C          -0.106017           
         C14       1.0000    0.86960   0.51560   0.39380   Biso      1.000     C          0.622788  
         C15       1.0000    0.79800   0.95400   0.21710   Biso      1.000     C          0.604176  
         C16       1.0000    0.88180   0.71920   0.42330   Biso      1.000     C          -0.106305           
         C17       1.0000    0.28080   0.11820   0.07670   Biso      1.000     C          -0.106311           
         C18       1.0000    0.14960   0.12180   0.09510   Biso      1.000     C          -0.047973           
         C19       1.0000    0.08620   0.09320   0.04380   Biso      1.000     C          0.680363  
         C20       1.0000    0.20200   0.04600   0.78290   Biso      1.000     C          0.604176  
         C21       1.0000    0.13040   0.48440   0.60620   Biso      1.000     C          0.622788  
         C22       1.0000    0.15220   0.07080   0.66090   Biso      1.000     C          -0.106019           
         C23       1.0000    0.17540   0.12880   0.70970   Biso      1.000     C          -0.010881           
         C24       1.0000    0.17110   0.25990   0.69130   Biso      1.000     C          -0.096701           
         C25       1.0000    0.14160   0.33760   0.62480   Biso      1.000     C          -0.019745           
         C26       1.0000    0.11820   0.28080   0.57670   Biso      1.000     C          -0.106311           
         C27       1.0000    0.12180   0.14960   0.59510   Biso      1.000     C          -0.047973           
         C28       1.0000    0.09320   0.08620   0.54380   Biso      1.000     C          0.680363  
         C29       1.0000    0.95400   0.79800   0.71710   Biso      1.000     C          0.604176  
         C30       1.0000    0.51560   0.86960   0.89380   Biso      1.000     C          0.622788  
         C31       1.0000    0.92920   0.84780   0.83910   Biso      1.000     C          -0.106019           
         C32       1.0000    0.87120   0.82460   0.79030   Biso      1.000     C          -0.010881           
         C33       1.0000    0.74010   0.82890   0.80870   Biso      1.000     C          -0.096701           
         C34       1.0000    0.71920   0.88180   0.92330   Biso      1.000     C          -0.106311           
         C35       1.0000    0.91380   0.90680   0.95620   Biso      1.000     C          0.680363  
         C36       1.0000    0.85040   0.87820   0.90490   Biso      1.000     C          -0.047973           
         Dy1       1.0000    0.75382   0.09646   0.08305   Biso      1.000     Dy          2.019778  
         Dy2       1.0000    0.09646   0.75382   0.58305   Biso      1.000     Dy          2.019778  
         Dy3       1.0000    0.90354   0.24618   0.41695   Biso      1.000     Dy          2.019778  
         Dy4       1.0000    0.24618   0.90354   0.91695   Biso      1.000     Dy          2.019778  
         H1        1.0000    0.33120   0.09980   0.03170   Biso      1.000     H          0.136106  
         H2        1.0000    0.29770   0.18810   0.22380   Biso      1.000     H          0.136487  
         H3        1.0000    0.90020   0.66880   0.46830   Biso      1.000     H          0.136105  
         H4        1.0000    0.81190   0.70230   0.27620   Biso      1.000     H          0.136487  
         H5        1.0000    0.98080   0.15720   0.17230   Biso      1.000     H          0.132127  
         H6        1.0000    0.66880   0.90020   0.96830   Biso      1.000     H          0.136106  
         H7        1.0000    0.70230   0.81190   0.77620   Biso      1.000     H          0.136486  
         H8        1.0000    0.01920   0.84280   0.82770   Biso      1.000     H          0.132127  
         H9        1.0000    0.09980   0.33120   0.53170   Biso      1.000     H          0.136106  
         H10       1.0000    0.18810   0.29770   0.72380   Biso      1.000     H          0.136486  
         H11       1.0000    0.84280   0.01920   0.32770   Biso      1.000     H          0.132127  
         H12       1.0000    0.15720   0.98080   0.67230   Biso      1.000     H          0.132127  
         O1        1.0000    0.02730   0.91810   0.93460   Biso      1.000     O          -0.739922           
         O2        1.0000    0.47150   0.84090   0.84900   Biso      1.000     O          -0.687969           
         O3        1.0000    0.89500   0.79500   0.67090   Biso      1.000     O          -0.612773           
         O4        1.0000    0.07480   0.78320   0.70480   Biso      1.000     O          -0.612623           
         O5        1.0000    0.21680   0.92520   0.79520   Biso      1.000     O          -0.612623           
         O6        1.0000    0.09970   0.55410   0.55090   Biso      1.000     O          -0.636296           
         O7        1.0000    0.15910   0.52850   0.65100   Biso      1.000     O          -0.687969           
         O8        1.0000    0.20500   0.10500   0.82910   Biso      1.000     O          -0.612773           
         O9        1.0000    0.44590   0.90030   0.94910   Biso      1.000     O          -0.636296           
         O10       1.0000    0.08150   0.15090   0.48160   Biso      1.000     O          -0.65461  
         O11       1.0000    0.84910   0.91850   0.01840   Biso      1.000     O          -0.65461  
         O12       1.0000    0.92520   0.21680   0.29520   Biso      1.000     O          -0.612623           
         O13       1.0000    0.78320   0.07480   0.20480   Biso      1.000     O          -0.612623           
         O14       1.0000    0.79500   0.89500   0.17090   Biso      1.000     O          -0.612773           
         O15       1.0000    0.84090   0.47150   0.34900   Biso      1.000     O          -0.687969           
         O16       1.0000    0.90030   0.44590   0.44910   Biso      1.000     O          -0.636297           
         O17       1.0000    0.91850   0.84910   0.51840   Biso      1.000     O          -0.65461  
         O18       1.0000    0.97270   0.08190   0.06540   Biso      1.000     O          -0.739922           
         O19       1.0000    0.10500   0.20500   0.32910   Biso      1.000     O          -0.612773           
         O20       1.0000    0.52850   0.15910   0.15100   Biso      1.000     O          -0.687969           
         O21       1.0000    0.55410   0.09970   0.05090   Biso      1.000     O          -0.636296           
         O22       1.0000    0.15090   0.08150   0.98160   Biso      1.000     O          -0.65461  
         O23       1.0000    0.91810   0.02730   0.43460   Biso      1.000     O          -0.739922           
         O24       1.0000    0.08190   0.97270   0.56540   Biso      1.000     O          -0.739922 