
##########################################################################
#               Crystallographic Information Format file
#               Produced by PyCifRW module
#
#  This is a CIF file.  CIF has been adopted by the International
#  Union of Crystallography as the standard for data archiving and
#  transmission.
#
#  For information on this file format, follow the CIF links at
#  http://www.iucr.org
##########################################################################

data_image0

_cell_length_a                          10.8308
_cell_length_b                          10.8308
_cell_length_c                          19.557
_cell_angle_alpha                       75.6925
_cell_angle_beta                        75.6925
_cell_angle_gamma                       64.7067
_symmetry_space_group_name_H-M          'P 1'
_symmetry_int_tables_number             1
loop_
  _symmetry_equiv_pos_as_xyz
         'x, y, z' 
loop_
  _atom_site_label
  _atom_site_occupancy
  _atom_site_fract_x
  _atom_site_fract_y
  _atom_site_fract_z
  _atom_site_thermal_displace_type
  _atom_site_B_iso_or_equiv
  _atom_site_type_symbol
  _atom_site_charge
         C1        1.0000    0.64680   0.62260   0.59440   Biso      1.000     C          -0.027143           
         C2        1.0000    0.62260   0.64680   0.09440   Biso      1.000     C          -0.027143           
         C3        1.0000    0.61780   0.77940   0.07730   Biso      1.000     C          -0.10749700000000001          
         C4        1.0000    0.67410   0.75890   0.19190   Biso      1.000     C          -0.316375           
         C5        1.0000    0.63380   0.98300   0.10730   Biso      1.000     C          0.5518149999999999  
         C6        1.0000    0.59170   0.58470   0.04330   Biso      1.000     C          0.62029   
         C7        1.0000    0.54600   0.70500   0.78280   Biso      1.000     C          0.544142  
         C8        1.0000    0.62570   0.67930   0.71080   Biso      1.000     C          0.05450700000000001           
         C9        1.0000    0.56980   0.65280   0.66170   Biso      1.000     C          -0.125094           
         C10       1.0000    0.77940   0.61780   0.57730   Biso      1.000     C          -0.107498           
         C11       1.0000    0.83640   0.64480   0.62520   Biso      1.000     C          0.049829000000000005          
         C12       1.0000    0.65280   0.56980   0.16170   Biso      1.000     C          -0.125091           
         C13       1.0000    0.75890   0.67410   0.69190   Biso      1.000     C          -0.316377           
         C14       1.0000    0.58470   0.59170   0.54330   Biso      1.000     C          0.620291  
         C15       1.0000    0.29500   0.45400   0.71720   Biso      1.000     C          0.544145  
         C16       1.0000    0.32070   0.37430   0.78920   Biso      1.000     C          0.05450599999999999           
         C17       1.0000    0.34720   0.43020   0.83830   Biso      1.000     C          -0.12509  
         C18       1.0000    0.37740   0.35320   0.90560   Biso      1.000     C          -0.027143           
         C19       1.0000    0.38220   0.22060   0.92270   Biso      1.000     C          -0.10749600000000001          
         C20       1.0000    0.35520   0.16360   0.87480   Biso      1.000     C          0.049829000000000005          
         C21       1.0000    0.32590   0.24110   0.80810   Biso      1.000     C          -0.316375           
         C22       1.0000    0.36620   0.01700   0.89270   Biso      1.000     C          0.551819  
         C23       1.0000    0.40830   0.41530   0.95670   Biso      1.000     C          0.62029   
         C24       1.0000    0.98300   0.63380   0.60730   Biso      1.000     C          0.55182   
         C25       1.0000    0.67930   0.62570   0.21080   Biso      1.000     C          0.05450599999999999           
         C26       1.0000    0.64480   0.83640   0.12520   Biso      1.000     C          0.04983   
         C27       1.0000    0.41530   0.40830   0.45670   Biso      1.000     C          0.620292  
         C28       1.0000    0.01700   0.36620   0.39270   Biso      1.000     C          0.5518149999999999  
         C29       1.0000    0.24110   0.32590   0.30810   Biso      1.000     C          -0.316375           
         C30       1.0000    0.16360   0.35520   0.37480   Biso      1.000     C          0.049828  
         C31       1.0000    0.22060   0.38220   0.42270   Biso      1.000     C          -0.1075   
         C32       1.0000    0.35320   0.37740   0.40560   Biso      1.000     C          -0.027138           
         C33       1.0000    0.43020   0.34720   0.33830   Biso      1.000     C          -0.125093           
         C34       1.0000    0.37430   0.32070   0.28920   Biso      1.000     C          0.05450700000000001           
         C35       1.0000    0.45400   0.29500   0.21720   Biso      1.000     C          0.544144  
         C36       1.0000    0.70500   0.54600   0.28280   Biso      1.000     C          0.544143  
         H1        1.0000    0.51400   0.34400   0.32700   Biso      1.000     H          0.12778499999999998           
         H2        1.0000    0.22300   0.31300   0.28400   Biso      1.000     H          0.236019  
         H3        1.0000    0.17400   0.40000   0.47100   Biso      1.000     H          0.132155  
         H4        1.0000    0.65600   0.48600   0.17300   Biso      1.000     H          0.12778499999999998           
         H5        1.0000    0.68700   0.77700   0.21600   Biso      1.000     H          0.23601999999999998           
         H6        1.0000    0.48600   0.65600   0.67300   Biso      1.000     H          0.12778499999999998           
         H7        1.0000    0.60000   0.82600   0.02900   Biso      1.000     H          0.132156  
         H8        1.0000    0.82600   0.60000   0.52900   Biso      1.000     H          0.132156  
         H9        1.0000    0.34400   0.51400   0.82700   Biso      1.000     H          0.12778399999999998           
         H10       1.0000    0.31300   0.22300   0.78400   Biso      1.000     H          0.23601799999999998           
         H11       1.0000    0.40000   0.17400   0.97100   Biso      1.000     H          0.132156  
         H12       1.0000    0.77700   0.68700   0.71600   Biso      1.000     H          0.23602199999999998           
         O1        1.0000    0.58030   0.65010   0.98180   Biso      1.000     O          -0.527721           
         O2        1.0000    0.42110   0.71890   0.79710   Biso      1.000     O          -0.472941           
         O3        1.0000    0.60350   0.71050   0.82980   Biso      1.000     O          -0.47155600000000003          
         O4        1.0000    0.02890   0.67210   0.64880   Biso      1.000     O          -0.507594           
         O5        1.0000    0.06020   0.58880   0.55340   Biso      1.000     O          -0.517297           
         O6        1.0000    0.41120   0.93980   0.94660   Biso      1.000     O          -0.5172979999999999           
         O7        1.0000    0.65010   0.58030   0.48180   Biso      1.000     O          -0.527725           
         O8        1.0000    0.32790   0.97110   0.85120   Biso      1.000     O          -0.507592           
         O9        1.0000    0.28950   0.39650   0.67020   Biso      1.000     O          -0.471553           
         O10       1.0000    0.57860   0.47140   0.06680   Biso      1.000     O          -0.577295           
         O11       1.0000    0.28110   0.57890   0.70290   Biso      1.000     O          -0.472946           
         O12       1.0000    0.47140   0.57860   0.56680   Biso      1.000     O          -0.577289           
         O13       1.0000    0.58880   0.06020   0.05340   Biso      1.000     O          -0.517296           
         O14       1.0000    0.41970   0.34990   0.01820   Biso      1.000     O          -0.527726           
         O15       1.0000    0.71050   0.60350   0.32980   Biso      1.000     O          -0.471553           
         O16       1.0000    0.71890   0.42110   0.29710   Biso      1.000     O          -0.472944           
         O17       1.0000    0.34990   0.41970   0.51820   Biso      1.000     O          -0.527722           
         O18       1.0000    0.52860   0.42140   0.43320   Biso      1.000     O          -0.5772970000000001           
         O19       1.0000    0.93980   0.41120   0.44660   Biso      1.000     O          -0.5172939999999999           
         O20       1.0000    0.97110   0.32790   0.35120   Biso      1.000     O          -0.507591           
         O21       1.0000    0.39650   0.28950   0.17020   Biso      1.000     O          -0.47155600000000003          
         O22       1.0000    0.57890   0.28110   0.20290   Biso      1.000     O          -0.472943           
         O23       1.0000    0.42140   0.52860   0.93320   Biso      1.000     O          -0.57729  
         O24       1.0000    0.67210   0.02890   0.14880   Biso      1.000     O          -0.507592           
         Yb1       1.0000    0.25461   0.59575   0.58293   Biso      1.000     Yb          1.333958  
         Yb2       1.0000    0.40425   0.74539   0.91707   Biso      1.000     Yb          1.333962  
         Yb3       1.0000    0.74539   0.40425   0.41707   Biso      1.000     Yb          1.333962  
         Yb4       1.0000    0.59575   0.25461   0.08293   Biso      1.000     Yb          1.333967 