
##########################################################################
#               Crystallographic Information Format file
#               Produced by PyCifRW module
#
#  This is a CIF file.  CIF has been adopted by the International
#  Union of Crystallography as the standard for data archiving and
#  transmission.
#
#  For information on this file format, follow the CIF links at
#  http://www.iucr.org
##########################################################################

data_image0

_cell_length_a                          10.9051
_cell_length_b                          10.9051
_cell_length_c                          19.698
_cell_angle_alpha                       75.6385
_cell_angle_beta                        75.6385
_cell_angle_gamma                       64.5543
_symmetry_space_group_name_H-M          'P 1'
_symmetry_int_tables_number             1
loop_
  _symmetry_equiv_pos_as_xyz
         'x, y, z' 
loop_
  _atom_site_label
  _atom_site_occupancy
  _atom_site_fract_x
  _atom_site_fract_y
  _atom_site_fract_z
  _atom_site_thermal_displace_type
  _atom_site_B_iso_or_equiv
  _atom_site_type_symbol
  _atom_site_charge
         C1        1.0000    0.35500   0.37760   0.90550   Biso      1.000     C          -0.053324           
         C2        1.0000    0.29700   0.45440   0.21750   Biso      1.000     C          0.600048  
         C3        1.0000    0.40600   0.41400   0.45620   Biso      1.000     C          0.6843    
         C4        1.0000    0.37760   0.35500   0.40550   Biso      1.000     C          -0.053324           
         C5        1.0000    0.34660   0.42960   0.33900   Biso      1.000     C          -0.095992           
         C6        1.0000    0.32170   0.37290   0.28990   Biso      1.000     C          -0.011348           
         C7        1.0000    0.32590   0.24190   0.30830   Biso      1.000     C          -0.090448           
         C8        1.0000    0.35510   0.16490   0.37440   Biso      1.000     C          -0.018726           
         C9        1.0000    0.38090   0.22010   0.42300   Biso      1.000     C          -0.097738           
         C10       1.0000    0.01750   0.36610   0.89170   Biso      1.000     C          0.600124  
         C11       1.0000    0.36610   0.01750   0.39170   Biso      1.000     C          0.600124  
         C12       1.0000    0.45440   0.29700   0.71750   Biso      1.000     C          0.600047  
         C13       1.0000    0.67830   0.62710   0.71010   Biso      1.000     C          -0.011348           
         C14       1.0000    0.42960   0.34660   0.83900   Biso      1.000     C          -0.095993           
         C15       1.0000    0.37290   0.32170   0.78990   Biso      1.000     C          -0.011348           
         C16       1.0000    0.24190   0.32590   0.80830   Biso      1.000     C          -0.090448           
         C17       1.0000    0.16490   0.35510   0.87440   Biso      1.000     C          -0.018726           
         C18       1.0000    0.22010   0.38090   0.92300   Biso      1.000     C          -0.097738           
         C19       1.0000    0.63390   0.98250   0.60830   Biso      1.000     C          0.600125  
         C20       1.0000    0.70300   0.54560   0.78250   Biso      1.000     C          0.600048  
         C21       1.0000    0.59400   0.58600   0.54380   Biso      1.000     C          0.6843    
         C22       1.0000    0.41400   0.40600   0.95620   Biso      1.000     C          0.6843    
         C23       1.0000    0.77990   0.61910   0.07700   Biso      1.000     C          -0.097739           
         C24       1.0000    0.83510   0.64490   0.12560   Biso      1.000     C          -0.018724           
         C25       1.0000    0.75810   0.67410   0.19170   Biso      1.000     C          -0.090456           
         C26       1.0000    0.61910   0.77990   0.57700   Biso      1.000     C          -0.097739           
         C27       1.0000    0.64490   0.83510   0.62560   Biso      1.000     C          -0.018725           
         C28       1.0000    0.67410   0.75810   0.69170   Biso      1.000     C          -0.090448           
         C29       1.0000    0.62240   0.64500   0.59450   Biso      1.000     C          -0.053324           
         C30       1.0000    0.98250   0.63390   0.10830   Biso      1.000     C          0.600124  
         C31       1.0000    0.65340   0.57040   0.66100   Biso      1.000     C          -0.095992           
         C32       1.0000    0.62710   0.67830   0.21010   Biso      1.000     C          -0.01134  
         C33       1.0000    0.57040   0.65340   0.16100   Biso      1.000     C          -0.095993           
         C34       1.0000    0.64500   0.62240   0.09450   Biso      1.000     C          -0.053324           
         C35       1.0000    0.58600   0.59400   0.04380   Biso      1.000     C          0.6843    
         C36       1.0000    0.54560   0.70300   0.28250   Biso      1.000     C          0.600047  
         H1        1.0000    0.59960   0.83160   0.53290   Biso      1.000     H          0.138539  
         H2        1.0000    0.48080   0.65740   0.17310   Biso      1.000     H          0.127757  
         H3        1.0000    0.79630   0.69110   0.22380   Biso      1.000     H          0.136933  
         H4        1.0000    0.83160   0.59960   0.03290   Biso      1.000     H          0.138539  
         H5        1.0000    0.34260   0.51920   0.32690   Biso      1.000     H          0.127757  
         H6        1.0000    0.40040   0.16840   0.46710   Biso      1.000     H          0.138539  
         H7        1.0000    0.51920   0.34260   0.82690   Biso      1.000     H          0.127757  
         H8        1.0000    0.16840   0.40040   0.96710   Biso      1.000     H          0.138539  
         H9        1.0000    0.65740   0.48080   0.67310   Biso      1.000     H          0.127757  
         H10       1.0000    0.69110   0.79630   0.72380   Biso      1.000     H          0.136932  
         H11       1.0000    0.30890   0.20370   0.27620   Biso      1.000     H          0.136932  
         H12       1.0000    0.20370   0.30890   0.77620   Biso      1.000     H          0.136932  
         Ho1       1.0000    0.25461   0.59547   0.08316   Biso      1.000     Ho          2.024012  
         Ho2       1.0000    0.59547   0.25461   0.58316   Biso      1.000     Ho          2.024012  
         Ho3       1.0000    0.74539   0.40453   0.91684   Biso      1.000     Ho          2.024012  
         Ho4       1.0000    0.40453   0.74539   0.41684   Biso      1.000     Ho          2.024012  
         O1        1.0000    0.71780   0.42280   0.79650   Biso      1.000     O          -0.617539           
         O2        1.0000    0.70620   0.60440   0.82920   Biso      1.000     O          -0.614015           
         O3        1.0000    0.66560   0.02680   0.65080   Biso      1.000     O          -0.656364           
         O4        1.0000    0.59430   0.05610   0.55260   Biso      1.000     O          -0.658107           
         O5        1.0000    0.35060   0.41720   0.01820   Biso      1.000     O          -0.65299  
         O6        1.0000    0.52690   0.41970   0.93370   Biso      1.000     O          -0.745121           
         O7        1.0000    0.57720   0.28220   0.70350   Biso      1.000     O          -0.617539           
         O8        1.0000    0.39560   0.29380   0.67080   Biso      1.000     O          -0.614015           
         O9        1.0000    0.97320   0.33440   0.84920   Biso      1.000     O          -0.656364           
         O10       1.0000    0.94390   0.40570   0.94740   Biso      1.000     O          -0.658107           
         O11       1.0000    0.41720   0.35060   0.51820   Biso      1.000     O          -0.65299  
         O12       1.0000    0.41970   0.52690   0.43370   Biso      1.000     O          -0.745121           
         O13       1.0000    0.28220   0.57720   0.20350   Biso      1.000     O          -0.617539           
         O14       1.0000    0.29380   0.39560   0.17080   Biso      1.000     O          -0.614015           
         O15       1.0000    0.33440   0.97320   0.34920   Biso      1.000     O          -0.656364           
         O16       1.0000    0.40570   0.94390   0.44740   Biso      1.000     O          -0.658107           
         O17       1.0000    0.64940   0.58280   0.98180   Biso      1.000     O          -0.65299  
         O18       1.0000    0.47310   0.58030   0.06630   Biso      1.000     O          -0.745121           
         O19       1.0000    0.42280   0.71780   0.29650   Biso      1.000     O          -0.617539           
         O20       1.0000    0.60440   0.70620   0.32920   Biso      1.000     O          -0.614015           
         O21       1.0000    0.02680   0.66560   0.15080   Biso      1.000     O          -0.656364           
         O22       1.0000    0.05610   0.59430   0.05260   Biso      1.000     O          -0.658107           
         O23       1.0000    0.58030   0.47310   0.56630   Biso      1.000     O          -0.745121           
         O24       1.0000    0.58280   0.64940   0.48180   Biso      1.000     O          -0.65299 