
##########################################################################
#               Crystallographic Information Format file
#               Produced by PyCifRW module
#
#  This is a CIF file.  CIF has been adopted by the International
#  Union of Crystallography as the standard for data archiving and
#  transmission.
#
#  For information on this file format, follow the CIF links at
#  http://www.iucr.org
##########################################################################

data_image0

_cell_length_a                          10.8662
_cell_length_b                          10.8662
_cell_length_c                          19.632
_cell_angle_alpha                       75.6105
_cell_angle_beta                        75.6105
_cell_angle_gamma                       64.4765
_symmetry_space_group_name_H-M          'P 1'
_symmetry_int_tables_number             1
loop_
  _symmetry_equiv_pos_as_xyz
         'x, y, z' 
loop_
  _atom_site_label
  _atom_site_occupancy
  _atom_site_fract_x
  _atom_site_fract_y
  _atom_site_fract_z
  _atom_site_thermal_displace_type
  _atom_site_B_iso_or_equiv
  _atom_site_type_symbol
  _atom_site_charge
         C1        1.0000    0.85240   0.87820   0.90480   Biso      1.000     C          -0.046171           
         C2        1.0000    0.87820   0.85240   0.40480   Biso      1.000     C          -0.046171           
         C3        1.0000    0.84820   0.92900   0.33920   Biso      1.000     C          -0.106493           
         C4        1.0000    0.82600   0.74020   0.30870   Biso      1.000     C          -0.097438           
         C5        1.0000    0.79560   0.95520   0.21700   Biso      1.000     C          0.596541  
         C6        1.0000    0.90870   0.91510   0.45620   Biso      1.000     C          0.677667  
         C7        1.0000    0.51540   0.86820   0.89210   Biso      1.000     C          0.60465   
         C8        1.0000    0.66340   0.85700   0.87460   Biso      1.000     C          -0.016731           
         C9        1.0000    0.71870   0.88230   0.92350   Biso      1.000     C          -0.09728400000000001          
         C10       1.0000    0.92900   0.84820   0.83920   Biso      1.000     C          -0.106492           
         C11       1.0000    0.87180   0.82200   0.78960   Biso      1.000     C          -0.008798           
         C12       1.0000    0.88230   0.71870   0.42350   Biso      1.000     C          -0.097287           
         C13       1.0000    0.74020   0.82600   0.80870   Biso      1.000     C          -0.09742999999999999          
         C14       1.0000    0.91510   0.90870   0.95620   Biso      1.000     C          0.677667  
         C15       1.0000    0.13180   0.48460   0.60790   Biso      1.000     C          0.60465   
         C16       1.0000    0.14300   0.33660   0.62540   Biso      1.000     C          -0.016731           
         C17       1.0000    0.11770   0.28130   0.57650   Biso      1.000     C          -0.09728400000000001          
         C18       1.0000    0.12180   0.14760   0.59520   Biso      1.000     C          -0.046171           
         C19       1.0000    0.15180   0.07100   0.66080   Biso      1.000     C          -0.106492           
         C20       1.0000    0.17800   0.12820   0.71040   Biso      1.000     C          -0.008798           
         C21       1.0000    0.17400   0.25980   0.69130   Biso      1.000     C          -0.09742999999999999          
         C22       1.0000    0.20440   0.04480   0.78300   Biso      1.000     C          0.596541  
         C23       1.0000    0.09130   0.08490   0.54380   Biso      1.000     C          0.677667  
         C24       1.0000    0.95520   0.79560   0.71700   Biso      1.000     C          0.596541  
         C25       1.0000    0.85700   0.66340   0.37460   Biso      1.000     C          -0.016725999999999998         
         C26       1.0000    0.82200   0.87180   0.28960   Biso      1.000     C          -0.008791           
         C27       1.0000    0.08490   0.09130   0.04380   Biso      1.000     C          0.677667  
         C28       1.0000    0.04480   0.20440   0.28300   Biso      1.000     C          0.596541  
         C29       1.0000    0.25980   0.17400   0.19130   Biso      1.000     C          -0.097438           
         C30       1.0000    0.12820   0.17800   0.21040   Biso      1.000     C          -0.008791           
         C31       1.0000    0.07100   0.15180   0.16080   Biso      1.000     C          -0.10649600000000001          
         C32       1.0000    0.14760   0.12180   0.09520   Biso      1.000     C          -0.046168           
         C33       1.0000    0.28130   0.11770   0.07650   Biso      1.000     C          -0.097287           
         C34       1.0000    0.33660   0.14300   0.12540   Biso      1.000     C          -0.016725999999999998         
         C35       1.0000    0.48460   0.13180   0.10790   Biso      1.000     C          0.604649  
         C36       1.0000    0.86820   0.51540   0.39210   Biso      1.000     C          0.604649  
         H1        1.0000    0.33240   0.09840   0.03200   Biso      1.000     H          0.14038   
         H2        1.0000    0.98140   0.15480   0.17250   Biso      1.000     H          0.131367  
         H3        1.0000    0.29830   0.19230   0.22310   Biso      1.000     H          0.137514  
         H4        1.0000    0.90160   0.66760   0.46800   Biso      1.000     H          0.14038   
         H5        1.0000    0.84520   0.01860   0.32750   Biso      1.000     H          0.131367  
         H6        1.0000    0.66760   0.90160   0.96800   Biso      1.000     H          0.14038   
         H7        1.0000    0.80770   0.70170   0.27690   Biso      1.000     H          0.137514  
         H8        1.0000    0.70170   0.80770   0.77690   Biso      1.000     H          0.137514  
         H9        1.0000    0.09840   0.33240   0.53200   Biso      1.000     H          0.14038   
         H10       1.0000    0.15480   0.98140   0.67250   Biso      1.000     H          0.131367  
         H11       1.0000    0.19230   0.29830   0.72310   Biso      1.000     H          0.137514  
         H12       1.0000    0.01860   0.84520   0.82750   Biso      1.000     H          0.131367  
         O1        1.0000    0.91870   0.85030   0.51900   Biso      1.000     O          -0.662089           
         O2        1.0000    0.44270   0.90910   0.94720   Biso      1.000     O          -0.648462           
         O3        1.0000    0.47060   0.83120   0.85120   Biso      1.000     O          -0.673128           
         O4        1.0000    0.89620   0.79180   0.66980   Biso      1.000     O          -0.617717           
         O5        1.0000    0.07680   0.78360   0.70340   Biso      1.000     O          -0.61058  
         O6        1.0000    0.21640   0.92320   0.79660   Biso      1.000     O          -0.61058  
         O7        1.0000    0.85030   0.91870   0.01900   Biso      1.000     O          -0.662089           
         O8        1.0000    0.20820   0.10380   0.83020   Biso      1.000     O          -0.617717           
         O9        1.0000    0.16880   0.52940   0.64880   Biso      1.000     O          -0.673128           
         O10       1.0000    0.92030   0.02750   0.43370   Biso      1.000     O          -0.7277279999999999           
         O11       1.0000    0.09090   0.55730   0.55280   Biso      1.000     O          -0.648462           
         O12       1.0000    0.02750   0.92030   0.93370   Biso      1.000     O          -0.7277279999999999           
         O13       1.0000    0.78360   0.07680   0.20340   Biso      1.000     O          -0.61058  
         O14       1.0000    0.08130   0.14970   0.48100   Biso      1.000     O          -0.662089           
         O15       1.0000    0.83120   0.47060   0.35120   Biso      1.000     O          -0.673128           
         O16       1.0000    0.90910   0.44270   0.44720   Biso      1.000     O          -0.648462           
         O17       1.0000    0.14970   0.08130   0.98100   Biso      1.000     O          -0.662089           
         O18       1.0000    0.97250   0.07970   0.06630   Biso      1.000     O          -0.7277279999999999           
         O19       1.0000    0.92320   0.21640   0.29660   Biso      1.000     O          -0.61058  
         O20       1.0000    0.10380   0.20820   0.33020   Biso      1.000     O          -0.617717           
         O21       1.0000    0.52940   0.16880   0.14880   Biso      1.000     O          -0.673128           
         O22       1.0000    0.55730   0.09090   0.05280   Biso      1.000     O          -0.648462           
         O23       1.0000    0.07970   0.97250   0.56630   Biso      1.000     O          -0.7277279999999999           
         O24       1.0000    0.79180   0.89620   0.16980   Biso      1.000     O          -0.617717           
         Tm1       1.0000    0.09580   0.75436   0.58307   Biso      1.000     Tm          2.024492  
         Tm2       1.0000    0.24564   0.90420   0.91693   Biso      1.000     Tm          2.024492  
         Tm3       1.0000    0.90420   0.24564   0.41693   Biso      1.000     Tm          2.024492  
         Tm4       1.0000    0.75436   0.09580   0.08307   Biso      1.000     Tm          2.024492 