
##########################################################################
#               Crystallographic Information Format file
#               Produced by PyCifRW module
#
#  This is a CIF file.  CIF has been adopted by the International
#  Union of Crystallography as the standard for data archiving and
#  transmission.
#
#  For information on this file format, follow the CIF links at
#  http://www.iucr.org
##########################################################################

data_image0

_cell_length_a                          5.7467
_cell_length_b                          17.9631
_cell_length_c                          20.3944
_cell_angle_alpha                       90
_cell_angle_beta                        90
_cell_angle_gamma                       90
_symmetry_space_group_name_H-M          'P 1'
_symmetry_int_tables_number             1
loop_
  _symmetry_equiv_pos_as_xyz
         'x, y, z' 
loop_
  _atom_site_label
  _atom_site_occupancy
  _atom_site_fract_x
  _atom_site_fract_y
  _atom_site_fract_z
  _atom_site_thermal_displace_type
  _atom_site_B_iso_or_equiv
  _atom_site_type_symbol
  _atom_site_charge
         C1        1.0000    0.24970   0.72641   0.74879   Biso      1.000     C          -0.137751           
         C2        1.0000    0.94740   0.10643   0.90849   Biso      1.000     C          -0.13592100000000001          
         C3        1.0000    0.32120   0.94204   0.52018   Biso      1.000     C          -0.026998           
         C4        1.0000    0.73210   0.29088   0.70339   Biso      1.000     C          -0.207513           
         C5        1.0000    0.75030   0.22641   0.75121   Biso      1.000     C          -0.137751           
         C6        1.0000    0.44740   0.39357   0.09151   Biso      1.000     C          -0.13592100000000001          
         C7        1.0000    0.82120   0.55796   0.47982   Biso      1.000     C          -0.026998           
         C8        1.0000    0.66060   0.48147   0.16372   Biso      1.000     C          0.551318  
         C9        1.0000    0.16060   0.01853   0.83628   Biso      1.000     C          0.551318  
         C10       1.0000    0.25710   0.58921   0.22854   Biso      1.000     C          0.096288  
         C11       1.0000    0.59420   0.07026   0.66010   Biso      1.000     C          0.14752200000000001           
         C12       1.0000    0.98720   0.19090   0.31936   Biso      1.000     C          -0.11436700000000001          
         C13       1.0000    0.60460   0.46024   0.54442   Biso      1.000     C          0.638076  
         C14       1.0000    0.88390   0.55116   0.59707   Biso      1.000     C          -0.040862           
         C15       1.0000    0.50860   0.38770   0.97500   Biso      1.000     C          -0.129354           
         C16       1.0000    0.23330   0.02623   0.95924   Biso      1.000     C          -0.04057  
         C17       1.0000    0.90580   0.92974   0.16010   Biso      1.000     C          0.14752300000000002           
         C18       1.0000    0.19960   0.96776   0.58203   Biso      1.000     C          0.556041  
         C19       1.0000    0.17880   0.05796   0.02018   Biso      1.000     C          -0.026997000000000004         
         C20       1.0000    0.33940   0.98147   0.33628   Biso      1.000     C          0.551318  
         C21       1.0000    0.76790   0.70912   0.20339   Biso      1.000     C          -0.207513           
         C22       1.0000    0.83940   0.51853   0.66372   Biso      1.000     C          0.551318  
         C23       1.0000    0.24290   0.41079   0.72854   Biso      1.000     C          0.096289  
         C24       1.0000    0.05260   0.60643   0.59151   Biso      1.000     C          -0.135919           
         C25       1.0000    0.51280   0.80910   0.81936   Biso      1.000     C          -0.11436700000000001          
         C26       1.0000    0.11610   0.05116   0.90293   Biso      1.000     C          -0.040861           
         C27       1.0000    0.26670   0.97377   0.45924   Biso      1.000     C          -0.040569           
         C28       1.0000    0.39540   0.96024   0.95558   Biso      1.000     C          0.638075  
         C29       1.0000    0.30040   0.03224   0.08203   Biso      1.000     C          0.55604   
         C30       1.0000    0.85790   0.85670   0.68474   Biso      1.000     C          0.15349200000000002           
         C31       1.0000    0.35790   0.64330   0.31526   Biso      1.000     C          0.15349200000000002           
         C32       1.0000    0.69960   0.53224   0.41797   Biso      1.000     C          0.556041  
         C33       1.0000    0.26790   0.79088   0.79661   Biso      1.000     C          -0.207513           
         C34       1.0000    0.48720   0.30910   0.68064   Biso      1.000     C          -0.11436700000000001          
         C35       1.0000    0.89540   0.53976   0.04442   Biso      1.000     C          0.638075  
         C36       1.0000    0.23210   0.20912   0.29661   Biso      1.000     C          -0.207513           
         C37       1.0000    0.09420   0.42974   0.33990   Biso      1.000     C          0.14752300000000002           
         C38       1.0000    0.38390   0.94884   0.40293   Biso      1.000     C          -0.040862           
         C39       1.0000    0.10520   0.63472   0.53067   Biso      1.000     C          0.081633  
         C40       1.0000    0.61610   0.44884   0.09707   Biso      1.000     C          -0.040861           
         C41       1.0000    0.76670   0.52623   0.54076   Biso      1.000     C          -0.040569           
         C42       1.0000    0.74970   0.77359   0.25121   Biso      1.000     C          -0.13775199999999999          
         C43       1.0000    0.44840   0.12648   0.74079   Biso      1.000     C          0.084216  
         C44       1.0000    0.01280   0.69090   0.18064   Biso      1.000     C          -0.11436700000000001          
         C45       1.0000    0.10460   0.03976   0.45558   Biso      1.000     C          0.638076  
         C46       1.0000    0.55160   0.62648   0.75921   Biso      1.000     C          0.084217  
         C47       1.0000    0.80040   0.46776   0.91797   Biso      1.000     C          0.556041  
         C48       1.0000    0.94840   0.37352   0.25921   Biso      1.000     C          0.084215  
         C49       1.0000    0.40580   0.57026   0.83990   Biso      1.000     C          0.14752200000000001           
         C50       1.0000    0.00860   0.11230   0.02500   Biso      1.000     C          -0.129352           
         C51       1.0000    0.99140   0.61230   0.47500   Biso      1.000     C          -0.12934600000000002          
         C52       1.0000    0.64210   0.14330   0.18474   Biso      1.000     C          0.15349100000000002           
         C53       1.0000    0.74290   0.08921   0.27146   Biso      1.000     C          0.096289  
         C54       1.0000    0.49140   0.88770   0.52500   Biso      1.000     C          -0.129352           
         C55       1.0000    0.39480   0.36528   0.03067   Biso      1.000     C          0.081638  
         C56       1.0000    0.75710   0.91079   0.77146   Biso      1.000     C          0.096288  
         C57       1.0000    0.89480   0.13472   0.96933   Biso      1.000     C          0.081638  
         C58       1.0000    0.73330   0.47377   0.04076   Biso      1.000     C          -0.04057  
         C59       1.0000    0.67880   0.44204   0.97982   Biso      1.000     C          -0.026994999999999998         
         C60       1.0000    0.25030   0.27359   0.24879   Biso      1.000     C          -0.13775199999999999          
         C61       1.0000    0.14210   0.35670   0.81526   Biso      1.000     C          0.15349200000000002           
         C62       1.0000    0.55260   0.89357   0.40849   Biso      1.000     C          -0.135919           
         C63       1.0000    0.05160   0.87352   0.24079   Biso      1.000     C          0.084216  
         C64       1.0000    0.60520   0.86528   0.46933   Biso      1.000     C          0.081638  
         Cu1       1.0000    0.14423   0.99617   0.70849   Biso      1.000     Cu          0.7840560000000001  
         Cu2       1.0000    0.35577   0.00383   0.20849   Biso      1.000     Cu          0.784058  
         Cu3       1.0000    0.64423   0.50383   0.29151   Biso      1.000     Cu          0.7840590000000001  
         Cu4       1.0000    0.85577   0.49617   0.79151   Biso      1.000     Cu          0.7840600000000001  
         H1        1.0000    0.79780   0.33480   0.72390   Biso      1.000     H          0.11336199999999999           
         H2        1.0000    0.81020   0.06160   0.44250   Biso      1.000     H          0.434613  
         H3        1.0000    0.32680   0.73960   0.70810   Biso      1.000     H          0.118     
         H4        1.0000    0.52800   0.86680   0.56540   Biso      1.000     H          0.136215  
         H5        1.0000    0.91150   0.23660   0.33310   Biso      1.000     H          0.11456400000000001           
         H6        1.0000    0.35260   0.14140   0.77510   Biso      1.000     H          0.114258  
         H7        1.0000    0.31020   0.43840   0.55750   Biso      1.000     H          0.434613  
         H8        1.0000    0.11460   0.46400   0.37360   Biso      1.000     H          0.111409  
         H9        1.0000    0.17370   0.77950   0.83480   Biso      1.000     H          0.129715  
         H10       1.0000    0.23870   0.55490   0.19480   Biso      1.000     H          0.118683  
         H11       1.0000    0.99650   0.15840   0.35730   Biso      1.000     H          0.127098  
         H12       1.0000    0.37100   0.37600   0.12860   Biso      1.000     H          0.134358  
         H13       1.0000    0.82630   0.27950   0.66520   Biso      1.000     H          0.129715  
         H14       1.0000    0.14740   0.85860   0.27510   Biso      1.000     H          0.11425899999999999           
         H15       1.0000    0.68980   0.93840   0.94250   Biso      1.000     H          0.434613  
         H16       1.0000    0.70220   0.66520   0.22390   Biso      1.000     H          0.11336199999999999           
         H17       1.0000    0.20220   0.83480   0.77610   Biso      1.000     H          0.11336199999999999           
         H18       1.0000    0.41280   0.28320   0.23910   Biso      1.000     H          0.114032  
         H19       1.0000    0.08720   0.71680   0.73910   Biso      1.000     H          0.114032  
         H20       1.0000    0.29780   0.16520   0.27610   Biso      1.000     H          0.11336199999999999           
         H21       1.0000    0.47200   0.36680   0.93460   Biso      1.000     H          0.136216  
         H22       1.0000    0.97200   0.13320   0.06540   Biso      1.000     H          0.136216  
         H23       1.0000    0.17320   0.26040   0.20810   Biso      1.000     H          0.118     
         H24       1.0000    0.00350   0.65840   0.14270   Biso      1.000     H          0.127098  
         H25       1.0000    0.32630   0.22050   0.33480   Biso      1.000     H          0.129716  
         H26       1.0000    0.07140   0.34750   0.85550   Biso      1.000     H          0.111899  
         H27       1.0000    0.61460   0.03600   0.62640   Biso      1.000     H          0.111409  
         H28       1.0000    0.38540   0.53600   0.87360   Biso      1.000     H          0.11141   
         H29       1.0000    0.62900   0.87600   0.37140   Biso      1.000     H          0.134358  
         H30       1.0000    0.26130   0.44510   0.69480   Biso      1.000     H          0.118683  
         H31       1.0000    0.41150   0.26340   0.66690   Biso      1.000     H          0.11456400000000001           
         H32       1.0000    0.73870   0.94510   0.80520   Biso      1.000     H          0.118683  
         H33       1.0000    0.49650   0.34160   0.64270   Biso      1.000     H          0.127098  
         H34       1.0000    0.67370   0.72050   0.16520   Biso      1.000     H          0.129715  
         H35       1.0000    0.91280   0.21680   0.76090   Biso      1.000     H          0.114032  
         H36       1.0000    0.88540   0.96400   0.12640   Biso      1.000     H          0.111409  
         H37       1.0000    0.02800   0.63320   0.43460   Biso      1.000     H          0.136215  
         H38       1.0000    0.85260   0.35860   0.22490   Biso      1.000     H          0.114258  
         H39       1.0000    0.87100   0.12400   0.87140   Biso      1.000     H          0.134358  
         H40       1.0000    0.58850   0.76340   0.83310   Biso      1.000     H          0.11456400000000001           
         H41       1.0000    0.08850   0.73660   0.16690   Biso      1.000     H          0.11456400000000001           
         H42       1.0000    0.58720   0.78320   0.26090   Biso      1.000     H          0.114032  
         H43       1.0000    0.92860   0.84750   0.64450   Biso      1.000     H          0.111899  
         H44       1.0000    0.50350   0.84160   0.85730   Biso      1.000     H          0.127098  
         H45       1.0000    0.67320   0.23960   0.79190   Biso      1.000     H          0.118     
         H46       1.0000    0.64740   0.64140   0.72490   Biso      1.000     H          0.114258  
         H47       1.0000    0.12900   0.62400   0.62860   Biso      1.000     H          0.134358  
         H48       1.0000    0.42860   0.65250   0.35550   Biso      1.000     H          0.111899  
         H49       1.0000    0.76130   0.05490   0.30520   Biso      1.000     H          0.118683  
         H50       1.0000    0.57140   0.15250   0.14450   Biso      1.000     H          0.111899  
         H51       1.0000    0.82680   0.76040   0.29190   Biso      1.000     H          0.118001  
         H52       1.0000    0.18980   0.56160   0.05750   Biso      1.000     H          0.434613  
         N1        1.0000    0.72030   0.80861   0.71335   Biso      1.000     N          -0.259525           
         N2        1.0000    0.88920   0.92110   0.71852   Biso      1.000     N          -0.326416           
         N3        1.0000    0.84350   0.15491   0.26920   Biso      1.000     N          0.189644  
         N4        1.0000    0.75800   0.87617   0.17207   Biso      1.000     N          -0.254164           
         N5        1.0000    0.35630   0.65906   0.77577   Biso      1.000     N          0.191538  
         N6        1.0000    0.70270   0.18854   0.97384   Biso      1.000     N          0.530878  
         N7        1.0000    0.64370   0.15906   0.72423   Biso      1.000     N          0.191538  
         N8        1.0000    0.74200   0.12383   0.67207   Biso      1.000     N          -0.254154           
         N9        1.0000    0.77970   0.19139   0.21335   Biso      1.000     N          -0.25951599999999997          
         N10       1.0000    0.61080   0.07890   0.21852   Biso      1.000     N          -0.326417           
         N11       1.0000    0.34350   0.34509   0.73080   Biso      1.000     N          0.189644  
         N12       1.0000    0.79730   0.81146   0.47384   Biso      1.000     N          0.530878  
         N13       1.0000    0.24200   0.37617   0.32793   Biso      1.000     N          -0.254164           
         N14       1.0000    0.90710   0.43107   0.29865   Biso      1.000     N          -0.320891           
         N15       1.0000    0.59290   0.56893   0.79865   Biso      1.000     N          -0.320892           
         N16       1.0000    0.22030   0.69139   0.28665   Biso      1.000     N          -0.259525           
         N17       1.0000    0.25800   0.62383   0.82793   Biso      1.000     N          -0.254154           
         N18       1.0000    0.09290   0.93107   0.20135   Biso      1.000     N          -0.320891           
         N19       1.0000    0.14370   0.34094   0.27577   Biso      1.000     N          0.191548  
         N20       1.0000    0.11080   0.42110   0.78148   Biso      1.000     N          -0.326418           
         N21       1.0000    0.20270   0.31146   0.02616   Biso      1.000     N          0.530878  
         N22       1.0000    0.85630   0.84094   0.22423   Biso      1.000     N          0.191548  
         N23       1.0000    0.15650   0.65491   0.23080   Biso      1.000     N          0.189653  
         N24       1.0000    0.29730   0.68854   0.52616   Biso      1.000     N          0.530878  
         N25       1.0000    0.27970   0.30861   0.78665   Biso      1.000     N          -0.25951599999999997          
         N26       1.0000    0.65650   0.84509   0.76920   Biso      1.000     N          0.189654  
         N27       1.0000    0.40710   0.06893   0.70135   Biso      1.000     N          -0.320891           
         N28       1.0000    0.38920   0.57890   0.28148   Biso      1.000     N          -0.326417           
         O1        1.0000    0.82420   0.60288   0.03668   Biso      1.000     O          -0.5030399999999999           
         O2        1.0000    0.04160   0.04654   0.78904   Biso      1.000     O          -0.5473520000000001           
         O3        1.0000    0.77780   0.55970   0.36453   Biso      1.000     O          -0.538602           
         O4        1.0000    0.19870   0.03235   0.32894   Biso      1.000     O          -0.559898           
         O5        1.0000    0.27780   0.94030   0.63547   Biso      1.000     O          -0.538601           
         O6        1.0000    0.95720   0.51388   0.92067   Biso      1.000     O          -0.5313899999999999           
         O7        1.0000    0.38750   0.47677   0.55613   Biso      1.000     O          -0.530126           
         O8        1.0000    0.67580   0.39712   0.53668   Biso      1.000     O          -0.5030399999999999           
         O9        1.0000    0.62390   0.20241   0.02820   Biso      1.000     O          -0.343632           
         O10       1.0000    0.54160   0.45346   0.21096   Biso      1.000     O          -0.5473520000000001           
         O11       1.0000    0.30130   0.96765   0.82894   Biso      1.000     O          -0.559898           
         O12       1.0000    0.37200   0.71599   0.57640   Biso      1.000     O          -0.334569           
         O13       1.0000    0.69870   0.46765   0.67106   Biso      1.000     O          -0.559898           
         O14       1.0000    0.54280   0.48612   0.42067   Biso      1.000     O          -0.531389           
         O15       1.0000    0.87610   0.79759   0.52820   Biso      1.000     O          -0.343632           
         O16       1.0000    0.61250   0.97677   0.94387   Biso      1.000     O          -0.530126           
         O17       1.0000    0.95840   0.54654   0.71096   Biso      1.000     O          -0.547353           
         O18       1.0000    0.11250   0.52323   0.05613   Biso      1.000     O          -0.530126           
         O19       1.0000    0.72220   0.44030   0.86453   Biso      1.000     O          -0.538602           
         O20       1.0000    0.12800   0.28401   0.07640   Biso      1.000     O          -0.334569           
         O21       1.0000    0.32420   0.89712   0.96332   Biso      1.000     O          -0.503041           
         O22       1.0000    0.12390   0.29759   0.97180   Biso      1.000     O          -0.343632           
         O23       1.0000    0.45840   0.95346   0.28904   Biso      1.000     O          -0.5473520000000001           
         O24       1.0000    0.17580   0.10288   0.46332   Biso      1.000     O          -0.503041           
         O25       1.0000    0.62800   0.21599   0.92360   Biso      1.000     O          -0.334569           
         O26       1.0000    0.45720   0.98612   0.07933   Biso      1.000     O          -0.531388           
         O27       1.0000    0.22220   0.05970   0.13547   Biso      1.000     O          -0.538601           
         O28       1.0000    0.37610   0.70241   0.47180   Biso      1.000     O          -0.343632           
         O29       1.0000    0.04280   0.01388   0.57933   Biso      1.000     O          -0.531389           
         O30       1.0000    0.88750   0.02323   0.44387   Biso      1.000     O          -0.530126           
         O31       1.0000    0.80130   0.53235   0.17106   Biso      1.000     O          -0.559898           
         O32       1.0000    0.87200   0.78401   0.42360   Biso      1.000     O          -0.334569 