
##########################################################################
#               Crystallographic Information Format file
#               Produced by PyCifRW module
#
#  This is a CIF file.  CIF has been adopted by the International
#  Union of Crystallography as the standard for data archiving and
#  transmission.
#
#  For information on this file format, follow the CIF links at
#  http://www.iucr.org
##########################################################################

data_image0

_cell_length_a                          14.516
_cell_length_b                          14.516
_cell_length_c                          15.279
_cell_angle_alpha                       90
_cell_angle_beta                        90
_cell_angle_gamma                       120
_symmetry_space_group_name_H-M          'P 1'
_symmetry_int_tables_number             1
loop_
  _symmetry_equiv_pos_as_xyz
         'x, y, z' 
loop_
  _atom_site_label
  _atom_site_occupancy
  _atom_site_fract_x
  _atom_site_fract_y
  _atom_site_fract_z
  _atom_site_thermal_displace_type
  _atom_site_B_iso_or_equiv
  _atom_site_type_symbol
  _atom_site_charge
         C1        1.0000    0.86780   0.35410   0.36190   Biso      1.000     C          0.60159   
         C2        1.0000    0.86780   0.51370   0.86190   Biso      1.000     C          0.599426  
         C3        1.0000    0.41130   0.26290   0.80570   Biso      1.000     C          -0.011687999999999999         
         C4        1.0000    0.48630   0.35410   0.86190   Biso      1.000     C          0.599511  
         C5        1.0000    0.73710   0.14840   0.80570   Biso      1.000     C          -0.011486           
         C6        1.0000    0.64590   0.13220   0.86190   Biso      1.000     C          0.599328  
         C7        1.0000    0.26290   0.41130   0.30570   Biso      1.000     C          -0.01546  
         C8        1.0000    0.35410   0.48630   0.36190   Biso      1.000     C          0.6015729999999999  
         C9        1.0000    0.14840   0.73710   0.30570   Biso      1.000     C          -0.015549           
         C10       1.0000    0.13220   0.64590   0.36190   Biso      1.000     C          0.601614  
         C11       1.0000    0.58870   0.85160   0.30570   Biso      1.000     C          -0.015324           
         C12       1.0000    0.51370   0.86780   0.36190   Biso      1.000     C          0.6015119999999999  
         C13       1.0000    0.73710   0.58870   0.30570   Biso      1.000     C          -0.015451           
         C14       1.0000    0.64590   0.51370   0.36190   Biso      1.000     C          0.6015729999999999  
         C15       1.0000    0.85160   0.26290   0.30570   Biso      1.000     C          -0.015574000000000001         
         C16       1.0000    0.58870   0.73710   0.19430   Biso      1.000     C          -0.011653           
         C17       1.0000    0.41130   0.14840   0.30570   Biso      1.000     C          -0.015335           
         C18       1.0000    0.48630   0.13220   0.36190   Biso      1.000     C          0.601504  
         C19       1.0000    0.85160   0.58870   0.19430   Biso      1.000     C          -0.011438           
         C20       1.0000    0.86780   0.51370   0.13810   Biso      1.000     C          0.599442  
         C21       1.0000    0.41130   0.26290   0.19430   Biso      1.000     C          -0.011644           
         C22       1.0000    0.48630   0.35410   0.13810   Biso      1.000     C          0.599511  
         C23       1.0000    0.73710   0.14840   0.19430   Biso      1.000     C          -0.011433           
         C24       1.0000    0.64590   0.13220   0.13810   Biso      1.000     C          0.599329  
         C25       1.0000    0.85160   0.58870   0.80570   Biso      1.000     C          -0.011484999999999999         
         C26       1.0000    0.35410   0.86780   0.86190   Biso      1.000     C          0.599342  
         C27       1.0000    0.26290   0.85160   0.80570   Biso      1.000     C          -0.011501           
         C28       1.0000    0.51370   0.64590   0.86190   Biso      1.000     C          0.599507  
         C29       1.0000    0.35410   0.86780   0.13810   Biso      1.000     C          0.599341  
         C30       1.0000    0.26290   0.85160   0.19430   Biso      1.000     C          -0.011423           
         C31       1.0000    0.51370   0.64590   0.13810   Biso      1.000     C          0.599514  
         C32       1.0000    0.73710   0.58870   0.69430   Biso      1.000     C          -0.015443           
         C33       1.0000    0.64590   0.51370   0.63810   Biso      1.000     C          0.601568  
         C34       1.0000    0.14840   0.41130   0.19430   Biso      1.000     C          -0.01144  
         C35       1.0000    0.86780   0.35410   0.63810   Biso      1.000     C          0.601592  
         C36       1.0000    0.41130   0.14840   0.69430   Biso      1.000     C          -0.015272999999999998         
         C37       1.0000    0.48630   0.13220   0.63810   Biso      1.000     C          0.601487  
         C38       1.0000    0.85160   0.26290   0.69430   Biso      1.000     C          -0.015544999999999998         
         C39       1.0000    0.35410   0.48630   0.63810   Biso      1.000     C          0.601564  
         C40       1.0000    0.14840   0.73710   0.69430   Biso      1.000     C          -0.015548           
         C41       1.0000    0.13220   0.64590   0.63810   Biso      1.000     C          0.601599  
         C42       1.0000    0.58870   0.85160   0.69430   Biso      1.000     C          -0.015304           
         C43       1.0000    0.51370   0.86780   0.63810   Biso      1.000     C          0.601488  
         C44       1.0000    0.14840   0.41130   0.80570   Biso      1.000     C          -0.011477           
         C45       1.0000    0.13220   0.48630   0.86190   Biso      1.000     C          0.5994189999999999  
         C46       1.0000    0.58870   0.73710   0.80570   Biso      1.000     C          -0.011652           
         C47       1.0000    0.26290   0.41130   0.69430   Biso      1.000     C          -0.015409           
         C48       1.0000    0.13220   0.48630   0.13810   Biso      1.000     C          0.599429  
         Cu1       1.0000    0.50000   0.00000   0.00000   Biso      1.000     Cu          0.978453  
         Cu2       1.0000    0.50000   0.50000   0.00000   Biso      1.000     Cu          0.9789200000000001  
         Cu3       1.0000    0.00000   0.50000   0.00000   Biso      1.000     Cu          0.978864  
         Cu4       1.0000    0.50000   0.00000   0.50000   Biso      1.000     Cu          0.979375  
         Cu5       1.0000    0.00000   0.50000   0.50000   Biso      1.000     Cu          0.979311  
         Cu6       1.0000    0.50000   0.50000   0.50000   Biso      1.000     Cu          0.979276  
         Er1       1.0000    0.66667   0.33334   0.75000   Biso      1.000     Er          1.9241830000000002  
         Er2       1.0000    0.66667   0.33334   0.25000   Biso      1.000     Er          1.924188  
         Er3       1.0000    0.33333   0.66666   0.25000   Biso      1.000     Er          1.924188  
         Er4       1.0000    0.33333   0.66666   0.75000   Biso      1.000     Er          1.9241849999999998  
         O1        1.0000    0.61090   0.55690   0.41140   Biso      1.000     O          -0.482177           
         O2        1.0000    0.80310   0.38750   0.35530   Biso      1.000     O          -0.581183           
         O3        1.0000    0.94600   0.38910   0.41140   Biso      1.000     O          -0.482271           
         O4        1.0000    0.58440   0.19690   0.35530   Biso      1.000     O          -0.580961           
         O5        1.0000    0.44310   0.05400   0.41140   Biso      1.000     O          -0.48221099999999995          
         O6        1.0000    0.80310   0.41560   0.14470   Biso      1.000     O          -0.581551           
         O7        1.0000    0.94600   0.55690   0.08860   Biso      1.000     O          -0.48266000000000003          
         O8        1.0000    0.58440   0.38750   0.14470   Biso      1.000     O          -0.581683           
         O9        1.0000    0.44310   0.38910   0.08860   Biso      1.000     O          -0.48268900000000003          
         O10       1.0000    0.61250   0.19690   0.14470   Biso      1.000     O          -0.581637           
         O11       1.0000    0.61090   0.05400   0.08860   Biso      1.000     O          -0.48282299999999995          
         O12       1.0000    0.19690   0.58440   0.14470   Biso      1.000     O          -0.581571           
         O13       1.0000    0.05400   0.44310   0.08860   Biso      1.000     O          -0.482659           
         O14       1.0000    0.55690   0.61090   0.08860   Biso      1.000     O          -0.48268999999999995          
         O15       1.0000    0.61250   0.41560   0.35530   Biso      1.000     O          -0.581059           
         O16       1.0000    0.38750   0.80310   0.14470   Biso      1.000     O          -0.581609           
         O17       1.0000    0.38910   0.94600   0.08860   Biso      1.000     O          -0.482807           
         O18       1.0000    0.76280   0.52560   0.75000   Biso      1.000     O          -0.177294           
         O19       1.0000    0.76280   0.23720   0.75000   Biso      1.000     O          -0.17733800000000002          
         O20       1.0000    0.47440   0.23720   0.75000   Biso      1.000     O          -0.177258           
         O21       1.0000    0.23720   0.47440   0.75000   Biso      1.000     O          -0.177275           
         O22       1.0000    0.23720   0.76280   0.75000   Biso      1.000     O          -0.17733800000000002          
         O23       1.0000    0.52560   0.76280   0.75000   Biso      1.000     O          -0.177266           
         O24       1.0000    0.23720   0.47440   0.25000   Biso      1.000     O          -0.177292           
         O25       1.0000    0.23720   0.76280   0.25000   Biso      1.000     O          -0.177293           
         O26       1.0000    0.52560   0.76280   0.25000   Biso      1.000     O          -0.177268           
         O27       1.0000    0.76280   0.52560   0.25000   Biso      1.000     O          -0.17728  
         O28       1.0000    0.41560   0.61250   0.14470   Biso      1.000     O          -0.581693           
         O29       1.0000    0.55690   0.94600   0.41140   Biso      1.000     O          -0.48221400000000003          
         O30       1.0000    0.61250   0.41560   0.64470   Biso      1.000     O          -0.581062           
         O31       1.0000    0.05400   0.61090   0.41140   Biso      1.000     O          -0.482264           
         O32       1.0000    0.76280   0.23720   0.25000   Biso      1.000     O          -0.177324           
         O33       1.0000    0.61090   0.55690   0.58860   Biso      1.000     O          -0.48219300000000004          
         O34       1.0000    0.80310   0.38750   0.64470   Biso      1.000     O          -0.581176           
         O35       1.0000    0.94600   0.38910   0.58860   Biso      1.000     O          -0.48227700000000007          
         O36       1.0000    0.58440   0.19690   0.64470   Biso      1.000     O          -0.5809479999999999           
         O37       1.0000    0.44310   0.05400   0.58860   Biso      1.000     O          -0.48221400000000003          
         O38       1.0000    0.38750   0.58440   0.64470   Biso      1.000     O          -0.581048           
         O39       1.0000    0.38910   0.44310   0.58860   Biso      1.000     O          -0.48218900000000003          
         O40       1.0000    0.19690   0.61250   0.64470   Biso      1.000     O          -0.581188           
         O41       1.0000    0.05400   0.61090   0.58860   Biso      1.000     O          -0.482284           
         O42       1.0000    0.41560   0.80310   0.64470   Biso      1.000     O          -0.58096  
         O43       1.0000    0.55690   0.94600   0.58860   Biso      1.000     O          -0.482205           
         O44       1.0000    0.19690   0.58440   0.85530   Biso      1.000     O          -0.5815670000000001           
         O45       1.0000    0.05400   0.44310   0.91140   Biso      1.000     O          -0.482646           
         O46       1.0000    0.41560   0.61250   0.85530   Biso      1.000     O          -0.581691           
         O47       1.0000    0.55690   0.61090   0.91140   Biso      1.000     O          -0.482688           
         O48       1.0000    0.38750   0.80310   0.85530   Biso      1.000     O          -0.581661           
         O49       1.0000    0.38910   0.94600   0.91140   Biso      1.000     O          -0.482824           
         O50       1.0000    0.80310   0.41560   0.85530   Biso      1.000     O          -0.581573           
         O51       1.0000    0.94600   0.55690   0.91140   Biso      1.000     O          -0.48266000000000003          
         O52       1.0000    0.58440   0.38750   0.85530   Biso      1.000     O          -0.5816899999999999           
         O53       1.0000    0.44310   0.38910   0.91140   Biso      1.000     O          -0.482684           
         O54       1.0000    0.61250   0.19690   0.85530   Biso      1.000     O          -0.581653           
         O55       1.0000    0.61090   0.05400   0.91140   Biso      1.000     O          -0.482811           
         O56       1.0000    0.38750   0.58440   0.35530   Biso      1.000     O          -0.581068           
         O57       1.0000    0.38910   0.44310   0.41140   Biso      1.000     O          -0.482181           
         O58       1.0000    0.19690   0.61250   0.35530   Biso      1.000     O          -0.581144           
         O59       1.0000    0.41560   0.80310   0.35530   Biso      1.000     O          -0.580982           
         O60       1.0000    0.47440   0.23720   0.25000   Biso      1.000     O          -0.177265 