
##########################################################################
#               Crystallographic Information Format file
#               Produced by PyCifRW module
#
#  This is a CIF file.  CIF has been adopted by the International
#  Union of Crystallography as the standard for data archiving and
#  transmission.
#
#  For information on this file format, follow the CIF links at
#  http://www.iucr.org
##########################################################################

data_image0

_cell_length_a                          14.751
_cell_length_b                          15.0645
_cell_length_c                          15.0645
_cell_angle_alpha                       120
_cell_angle_beta                        90
_cell_angle_gamma                       90
_symmetry_space_group_name_H-M          'P 1'
_symmetry_int_tables_number             1
loop_
  _symmetry_equiv_pos_as_xyz
         'x, y, z' 
loop_
  _atom_site_label
  _atom_site_occupancy
  _atom_site_fract_x
  _atom_site_fract_y
  _atom_site_fract_z
  _atom_site_thermal_displace_type
  _atom_site_B_iso_or_equiv
  _atom_site_type_symbol
  _atom_site_charge
         C1        1.0000    0.63990   0.87220   0.35640   Biso      1.000     C          0.669902  
         C2        1.0000    0.13990   0.51580   0.64360   Biso      1.000     C          0.669902  
         C3        1.0000    0.80040   0.14600   0.41410   Biso      1.000     C          -0.1644   
         C4        1.0000    0.13990   0.87220   0.51580   Biso      1.000     C          0.669894  
         C5        1.0000    0.80040   0.26810   0.85400   Biso      1.000     C          -0.16439  
         C6        1.0000    0.13990   0.64360   0.12780   Biso      1.000     C          0.669898  
         C7        1.0000    0.80040   0.58590   0.73190   Biso      1.000     C          -0.164398           
         C8        1.0000    0.13990   0.48420   0.35640   Biso      1.000     C          0.669903  
         C9        1.0000    0.69960   0.26810   0.41410   Biso      1.000     C          -0.164398           
         C10       1.0000    0.80040   0.41410   0.26810   Biso      1.000     C          -0.164398           
         C11       1.0000    0.36010   0.64360   0.51580   Biso      1.000     C          0.669894  
         C12       1.0000    0.36010   0.48420   0.12780   Biso      1.000     C          0.669902  
         C13       1.0000    0.69960   0.14600   0.73190   Biso      1.000     C          -0.16439700000000002          
         C14       1.0000    0.36010   0.87220   0.35640   Biso      1.000     C          0.669902  
         C15       1.0000    0.69960   0.73190   0.58590   Biso      1.000     C          -0.164398           
         C16       1.0000    0.36010   0.35640   0.48420   Biso      1.000     C          0.6698930000000001  
         C17       1.0000    0.69960   0.41410   0.14600   Biso      1.000     C          -0.164395           
         C18       1.0000    0.36010   0.51580   0.87220   Biso      1.000     C          0.669902  
         C19       1.0000    0.69960   0.85400   0.26810   Biso      1.000     C          -0.16439700000000002          
         C20       1.0000    0.69960   0.58590   0.85400   Biso      1.000     C          -0.164395           
         C21       1.0000    0.13990   0.35640   0.87220   Biso      1.000     C          0.669898  
         C22       1.0000    0.80040   0.73190   0.14600   Biso      1.000     C          -0.16439  
         C23       1.0000    0.13990   0.12780   0.48420   Biso      1.000     C          0.669894  
         C24       1.0000    0.19960   0.85400   0.58590   Biso      1.000     C          -0.164401           
         C25       1.0000    0.86010   0.12780   0.48420   Biso      1.000     C          0.6698930000000001  
         C26       1.0000    0.19960   0.73190   0.14600   Biso      1.000     C          -0.16439  
         C27       1.0000    0.86010   0.35640   0.87220   Biso      1.000     C          0.669898  
         C28       1.0000    0.19960   0.41410   0.26810   Biso      1.000     C          -0.164398           
         C29       1.0000    0.86010   0.51580   0.64360   Biso      1.000     C          0.669902  
         C30       1.0000    0.30040   0.73190   0.58590   Biso      1.000     C          -0.164398           
         C31       1.0000    0.63990   0.35640   0.48420   Biso      1.000     C          0.669894  
         C32       1.0000    0.30040   0.41410   0.14600   Biso      1.000     C          -0.164395           
         C33       1.0000    0.63990   0.51580   0.87220   Biso      1.000     C          0.669902  
         C34       1.0000    0.30040   0.85400   0.26810   Biso      1.000     C          -0.16439700000000002          
         C35       1.0000    0.63990   0.12780   0.64360   Biso      1.000     C          0.669902  
         C36       1.0000    0.30040   0.26810   0.41410   Biso      1.000     C          -0.164399           
         C37       1.0000    0.63990   0.64360   0.51580   Biso      1.000     C          0.6698930000000001  
         C38       1.0000    0.30040   0.58590   0.85400   Biso      1.000     C          -0.164395           
         C39       1.0000    0.63990   0.48420   0.12780   Biso      1.000     C          0.669902  
         C40       1.0000    0.30040   0.14600   0.73190   Biso      1.000     C          -0.16439700000000002          
         C41       1.0000    0.86010   0.64360   0.12780   Biso      1.000     C          0.669898  
         C42       1.0000    0.80040   0.85400   0.58590   Biso      1.000     C          -0.164401           
         C43       1.0000    0.36010   0.12780   0.64360   Biso      1.000     C          0.669902  
         C44       1.0000    0.86010   0.48420   0.35640   Biso      1.000     C          0.669902  
         C45       1.0000    0.19960   0.58590   0.73190   Biso      1.000     C          -0.164398           
         C46       1.0000    0.19960   0.14600   0.41410   Biso      1.000     C          -0.164401           
         C47       1.0000    0.86010   0.87220   0.51580   Biso      1.000     C          0.6698930000000001  
         C48       1.0000    0.19960   0.26810   0.85400   Biso      1.000     C          -0.16439  
         Cu1       1.0000    0.50000   0.50000   0.50000   Biso      1.000     Cu          0.987658  
         Cu2       1.0000    0.00000   0.50000   0.50000   Biso      1.000     Cu          0.987655  
         Cu3       1.0000    0.00000   0.00000   0.50000   Biso      1.000     Cu          0.9876520000000001  
         Cu4       1.0000    0.00000   0.50000   0.00000   Biso      1.000     Cu          0.987618  
         Cu5       1.0000    0.50000   0.00000   0.50000   Biso      1.000     Cu          0.9876360000000001  
         Cu6       1.0000    0.50000   0.50000   0.00000   Biso      1.000     Cu          0.987642  
         H1        1.0000    0.83730   0.15260   0.36440   Biso      1.000     H          0.122197  
         H2        1.0000    0.75970   0.08830   0.37730   Biso      1.000     H          0.11373   
         H3        1.0000    0.66270   0.63560   0.84740   Biso      1.000     H          0.12218399999999999           
         H4        1.0000    0.24030   0.91170   0.62270   Biso      1.000     H          0.113731  
         H5        1.0000    0.66270   0.15260   0.78820   Biso      1.000     H          0.122175  
         H6        1.0000    0.74030   0.08830   0.71100   Biso      1.000     H          0.11371700000000001           
         H7        1.0000    0.75970   0.62270   0.71100   Biso      1.000     H          0.11372   
         H8        1.0000    0.74030   0.62270   0.91170   Biso      1.000     H          0.113726  
         H9        1.0000    0.83730   0.63560   0.78820   Biso      1.000     H          0.12218399999999999           
         H10       1.0000    0.75970   0.37730   0.28900   Biso      1.000     H          0.11372   
         H11       1.0000    0.83730   0.21180   0.84740   Biso      1.000     H          0.12216600000000001           
         H12       1.0000    0.75970   0.91170   0.62270   Biso      1.000     H          0.113731  
         H13       1.0000    0.83730   0.84740   0.63560   Biso      1.000     H          0.122198  
         H14       1.0000    0.66270   0.21180   0.36440   Biso      1.000     H          0.12219000000000001           
         H15       1.0000    0.83730   0.36440   0.21180   Biso      1.000     H          0.12218299999999999           
         H16       1.0000    0.75970   0.71100   0.08830   Biso      1.000     H          0.113718  
         H17       1.0000    0.83730   0.78820   0.15260   Biso      1.000     H          0.12216700000000001           
         H18       1.0000    0.75970   0.28900   0.91170   Biso      1.000     H          0.11371700000000001           
         H19       1.0000    0.16270   0.84740   0.63560   Biso      1.000     H          0.122198  
         H20       1.0000    0.74030   0.28900   0.37730   Biso      1.000     H          0.113729  
         H21       1.0000    0.74030   0.37730   0.08830   Biso      1.000     H          0.113726  
         H22       1.0000    0.33730   0.36440   0.15260   Biso      1.000     H          0.12218499999999999           
         H23       1.0000    0.25970   0.37730   0.08830   Biso      1.000     H          0.113726  
         H24       1.0000    0.33730   0.84740   0.21180   Biso      1.000     H          0.122175  
         H25       1.0000    0.25970   0.91170   0.28900   Biso      1.000     H          0.11371700000000001           
         H26       1.0000    0.24030   0.37730   0.28900   Biso      1.000     H          0.11372   
         H27       1.0000    0.25970   0.71100   0.62270   Biso      1.000     H          0.113729  
         H28       1.0000    0.33730   0.63560   0.84740   Biso      1.000     H          0.122182  
         H29       1.0000    0.25970   0.62270   0.91170   Biso      1.000     H          0.113726  
         H30       1.0000    0.33730   0.15260   0.78820   Biso      1.000     H          0.12217599999999999           
         H31       1.0000    0.25970   0.08830   0.71100   Biso      1.000     H          0.11371700000000001           
         H32       1.0000    0.33730   0.21180   0.36440   Biso      1.000     H          0.12219100000000001           
         H33       1.0000    0.25970   0.28900   0.37730   Biso      1.000     H          0.113729  
         H34       1.0000    0.16270   0.36440   0.21180   Biso      1.000     H          0.12218499999999999           
         H35       1.0000    0.24030   0.71100   0.08830   Biso      1.000     H          0.113718  
         H36       1.0000    0.16270   0.78820   0.15260   Biso      1.000     H          0.12216600000000001           
         H37       1.0000    0.24030   0.08830   0.37730   Biso      1.000     H          0.11373   
         H38       1.0000    0.16270   0.15260   0.36440   Biso      1.000     H          0.122197  
         H39       1.0000    0.24030   0.62270   0.71100   Biso      1.000     H          0.113719  
         H40       1.0000    0.16270   0.63560   0.78820   Biso      1.000     H          0.12218299999999999           
         H41       1.0000    0.24030   0.28900   0.91170   Biso      1.000     H          0.113718  
         H42       1.0000    0.16270   0.21180   0.84740   Biso      1.000     H          0.12216800000000001           
         H43       1.0000    0.74030   0.71100   0.62270   Biso      1.000     H          0.113729  
         H44       1.0000    0.66270   0.78820   0.63560   Biso      1.000     H          0.12219000000000001           
         H45       1.0000    0.74030   0.91170   0.28900   Biso      1.000     H          0.11371700000000001           
         H46       1.0000    0.66270   0.84740   0.21180   Biso      1.000     H          0.122177  
         H47       1.0000    0.66270   0.36440   0.15260   Biso      1.000     H          0.12218299999999999           
         H48       1.0000    0.33730   0.78820   0.63560   Biso      1.000     H          0.12219000000000001           
         Nd1       1.0000    0.25000   0.33333   0.66666   Biso      1.000     Nd          2.0035529999999997  
         Nd2       1.0000    0.75000   0.33333   0.66666   Biso      1.000     Nd          2.003552  
         Nd3       1.0000    0.75000   0.66667   0.33334   Biso      1.000     Nd          2.0035529999999997  
         Nd4       1.0000    0.25000   0.66667   0.33334   Biso      1.000     Nd          2.0035529999999997  
         O1        1.0000    0.59240   0.04900   0.60710   Biso      1.000     O          -0.56663  
         O2        1.0000    0.64110   0.42190   0.80750   Biso      1.000     O          -0.64037  
         O3        1.0000    0.59240   0.55810   0.95100   Biso      1.000     O          -0.5666180000000001           
         O4        1.0000    0.64110   0.38560   0.57810   Biso      1.000     O          -0.6403369999999999           
         O5        1.0000    0.59240   0.39290   0.44190   Biso      1.000     O          -0.5666100000000001           
         O6        1.0000    0.85890   0.42190   0.61440   Biso      1.000     O          -0.640355           
         O7        1.0000    0.90760   0.55810   0.60710   Biso      1.000     O          -0.5666260000000001           
         O8        1.0000    0.85890   0.38560   0.80750   Biso      1.000     O          -0.6403800000000001           
         O9        1.0000    0.90760   0.39290   0.95100   Biso      1.000     O          -0.56663  
         O10       1.0000    0.85890   0.19250   0.57810   Biso      1.000     O          -0.6403340000000001           
         O11       1.0000    0.90760   0.04900   0.44190   Biso      1.000     O          -0.566609           
         O12       1.0000    0.85890   0.57810   0.38560   Biso      1.000     O          -0.640355           
         O13       1.0000    0.90760   0.44190   0.39290   Biso      1.000     O          -0.5666260000000001           
         O14       1.0000    0.90760   0.60710   0.04900   Biso      1.000     O          -0.56663  
         O15       1.0000    0.64110   0.19250   0.61440   Biso      1.000     O          -0.640363           
         O16       1.0000    0.85890   0.80750   0.42190   Biso      1.000     O          -0.6403340000000001           
         O17       1.0000    0.90760   0.95100   0.55810   Biso      1.000     O          -0.566609           
         O18       1.0000    0.75000   0.76375   0.23625   Biso      1.000     O          -0.23054499999999997          
         O19       1.0000    0.75000   0.47250   0.23625   Biso      1.000     O          -0.23053800000000002          
         O20       1.0000    0.75000   0.76375   0.52750   Biso      1.000     O          -0.230523           
         O21       1.0000    0.75000   0.23625   0.76375   Biso      1.000     O          -0.23054499999999997          
         O22       1.0000    0.75000   0.52750   0.76375   Biso      1.000     O          -0.23053800000000002          
         O23       1.0000    0.75000   0.23625   0.47250   Biso      1.000     O          -0.230523           
         O24       1.0000    0.25000   0.23625   0.76375   Biso      1.000     O          -0.23054499999999997          
         O25       1.0000    0.25000   0.52750   0.76375   Biso      1.000     O          -0.23053800000000002          
         O26       1.0000    0.25000   0.23625   0.47250   Biso      1.000     O          -0.230523           
         O27       1.0000    0.25000   0.76375   0.23625   Biso      1.000     O          -0.23054499999999997          
         O28       1.0000    0.85890   0.61440   0.19250   Biso      1.000     O          -0.6403800000000001           
         O29       1.0000    0.59240   0.60710   0.55810   Biso      1.000     O          -0.566609           
         O30       1.0000    0.64110   0.61440   0.42190   Biso      1.000     O          -0.640336           
         O31       1.0000    0.59240   0.44190   0.04900   Biso      1.000     O          -0.5666180000000001           
         O32       1.0000    0.35890   0.19250   0.61440   Biso      1.000     O          -0.640363           
         O33       1.0000    0.40760   0.04900   0.60710   Biso      1.000     O          -0.56663  
         O34       1.0000    0.35890   0.42190   0.80750   Biso      1.000     O          -0.640371           
         O35       1.0000    0.40760   0.55810   0.95100   Biso      1.000     O          -0.5666180000000001           
         O36       1.0000    0.35890   0.38560   0.57810   Biso      1.000     O          -0.640336           
         O37       1.0000    0.40760   0.39290   0.44190   Biso      1.000     O          -0.5666100000000001           
         O38       1.0000    0.35890   0.80750   0.38560   Biso      1.000     O          -0.640363           
         O39       1.0000    0.40760   0.95100   0.39290   Biso      1.000     O          -0.566629           
         O40       1.0000    0.35890   0.57810   0.19250   Biso      1.000     O          -0.64037  
         O41       1.0000    0.40760   0.44190   0.04900   Biso      1.000     O          -0.5666180000000001           
         O42       1.0000    0.35890   0.61440   0.42190   Biso      1.000     O          -0.6403369999999999           
         O43       1.0000    0.40760   0.60710   0.55810   Biso      1.000     O          -0.566609           
         O44       1.0000    0.14110   0.57810   0.38560   Biso      1.000     O          -0.640355           
         O45       1.0000    0.09240   0.44190   0.39290   Biso      1.000     O          -0.5666260000000001           
         O46       1.0000    0.14110   0.61440   0.19250   Biso      1.000     O          -0.6403800000000001           
         O47       1.0000    0.09240   0.60710   0.04900   Biso      1.000     O          -0.56663  
         O48       1.0000    0.14110   0.80750   0.42190   Biso      1.000     O          -0.6403340000000001           
         O49       1.0000    0.09240   0.95100   0.55810   Biso      1.000     O          -0.566609           
         O50       1.0000    0.14110   0.42190   0.61440   Biso      1.000     O          -0.640355           
         O51       1.0000    0.09240   0.55810   0.60710   Biso      1.000     O          -0.5666260000000001           
         O52       1.0000    0.14110   0.38560   0.80750   Biso      1.000     O          -0.640379           
         O53       1.0000    0.09240   0.39290   0.95100   Biso      1.000     O          -0.56663  
         O54       1.0000    0.14110   0.19250   0.57810   Biso      1.000     O          -0.640335           
         O55       1.0000    0.09240   0.04900   0.44190   Biso      1.000     O          -0.566609           
         O56       1.0000    0.64110   0.80750   0.38560   Biso      1.000     O          -0.640363           
         O57       1.0000    0.59240   0.95100   0.39290   Biso      1.000     O          -0.566629           
         O58       1.0000    0.64110   0.57810   0.19250   Biso      1.000     O          -0.640371           
         O59       1.0000    0.25000   0.47250   0.23625   Biso      1.000     O          -0.23053800000000002          
         O60       1.0000    0.25000   0.76375   0.52750   Biso      1.000     O          -0.230523 