
##########################################################################
#               Crystallographic Information Format file
#               Produced by PyCifRW module
#
#  This is a CIF file.  CIF has been adopted by the International
#  Union of Crystallography as the standard for data archiving and
#  transmission.
#
#  For information on this file format, follow the CIF links at
#  http://www.iucr.org
##########################################################################

data_image0

_cell_length_a                          14.71
_cell_length_b                          15.091
_cell_length_c                          15.091
_cell_angle_alpha                       120
_cell_angle_beta                        90
_cell_angle_gamma                       90
_symmetry_space_group_name_H-M          'P 1'
_symmetry_int_tables_number             1
loop_
  _symmetry_equiv_pos_as_xyz
         'x, y, z' 
loop_
  _atom_site_label
  _atom_site_occupancy
  _atom_site_fract_x
  _atom_site_fract_y
  _atom_site_fract_z
  _atom_site_thermal_displace_type
  _atom_site_B_iso_or_equiv
  _atom_site_type_symbol
  _atom_site_charge
         C1        1.0000    0.35940   0.35690   0.48520   Biso      1.000     C          0.595249  
         C2        1.0000    0.85940   0.35690   0.87170   Biso      1.000     C          0.595273  
         C3        1.0000    0.79900   0.14440   0.41300   Biso      1.000     C          -0.014645           
         C4        1.0000    0.85940   0.12830   0.48520   Biso      1.000     C          0.595248  
         C5        1.0000    0.79900   0.58700   0.73140   Biso      1.000     C          -0.014649           
         C6        1.0000    0.85940   0.51480   0.64310   Biso      1.000     C          0.595256  
         C7        1.0000    0.29900   0.41300   0.14440   Biso      1.000     C          -0.014584           
         C8        1.0000    0.35940   0.48520   0.12830   Biso      1.000     C          0.595261  
         C9        1.0000    0.29900   0.73140   0.58700   Biso      1.000     C          -0.014633           
         C10       1.0000    0.35940   0.64310   0.51480   Biso      1.000     C          0.595243  
         C11       1.0000    0.29900   0.85560   0.26860   Biso      1.000     C          -0.014657           
         C12       1.0000    0.35940   0.87170   0.35690   Biso      1.000     C          0.595263  
         C13       1.0000    0.29900   0.58700   0.85560   Biso      1.000     C          -0.014639           
         C14       1.0000    0.35940   0.51480   0.87170   Biso      1.000     C          0.595268  
         C15       1.0000    0.29900   0.26860   0.41300   Biso      1.000     C          -0.014611           
         C16       1.0000    0.20100   0.85560   0.58700   Biso      1.000     C          -0.014675           
         C17       1.0000    0.29900   0.14440   0.73140   Biso      1.000     C          -0.014618           
         C18       1.0000    0.35940   0.12830   0.64310   Biso      1.000     C          0.595258  
         C19       1.0000    0.20100   0.26860   0.85560   Biso      1.000     C          -0.014652           
         C20       1.0000    0.14060   0.35690   0.87170   Biso      1.000     C          0.595273  
         C21       1.0000    0.20100   0.14440   0.41300   Biso      1.000     C          -0.014612           
         C22       1.0000    0.14060   0.12830   0.48520   Biso      1.000     C          0.595248  
         C23       1.0000    0.20100   0.58700   0.73140   Biso      1.000     C          -0.014632           
         C24       1.0000    0.14060   0.51480   0.64310   Biso      1.000     C          0.595254  
         C25       1.0000    0.79900   0.26860   0.85560   Biso      1.000     C          -0.014625           
         C26       1.0000    0.85940   0.48520   0.35690   Biso      1.000     C          0.595253  
         C27       1.0000    0.79900   0.41300   0.26860   Biso      1.000     C          -0.014638           
         C28       1.0000    0.85940   0.87170   0.51480   Biso      1.000     C          0.59525   
         C29       1.0000    0.14060   0.48520   0.35690   Biso      1.000     C          0.595257  
         C30       1.0000    0.20100   0.41300   0.26860   Biso      1.000     C          -0.014671           
         C31       1.0000    0.14060   0.87170   0.51480   Biso      1.000     C          0.595251  
         C32       1.0000    0.70100   0.58700   0.85560   Biso      1.000     C          -0.014617           
         C33       1.0000    0.64060   0.51480   0.87170   Biso      1.000     C          0.595263  
         C34       1.0000    0.20100   0.73140   0.14440   Biso      1.000     C          -0.01458  
         C35       1.0000    0.64060   0.35690   0.48520   Biso      1.000     C          0.595244  
         C36       1.0000    0.70100   0.14440   0.73140   Biso      1.000     C          -0.014648           
         C37       1.0000    0.64060   0.12830   0.64310   Biso      1.000     C          0.595255  
         C38       1.0000    0.70100   0.26860   0.41300   Biso      1.000     C          -0.014653           
         C39       1.0000    0.64060   0.48520   0.12830   Biso      1.000     C          0.595266  
         C40       1.0000    0.70100   0.73140   0.58700   Biso      1.000     C          -0.014637           
         C41       1.0000    0.64060   0.64310   0.51480   Biso      1.000     C          0.595242  
         C42       1.0000    0.70100   0.85560   0.26860   Biso      1.000     C          -0.014657           
         C43       1.0000    0.64060   0.87170   0.35690   Biso      1.000     C          0.595258  
         C44       1.0000    0.79900   0.73140   0.14440   Biso      1.000     C          -0.014624           
         C45       1.0000    0.85940   0.64310   0.12830   Biso      1.000     C          0.595269  
         C46       1.0000    0.79900   0.85560   0.58700   Biso      1.000     C          -0.014648           
         C47       1.0000    0.70100   0.41300   0.14440   Biso      1.000     C          -0.014638           
         C48       1.0000    0.14060   0.64310   0.12830   Biso      1.000     C          0.595267  
         Cu1       1.0000    0.00000   0.50000   0.50000   Biso      1.000     Cu          0.978568  
         Cu2       1.0000    0.00000   0.00000   0.50000   Biso      1.000     Cu          0.978572  
         Cu3       1.0000    0.00000   0.50000   0.00000   Biso      1.000     Cu          0.978586  
         Cu4       1.0000    0.50000   0.00000   0.50000   Biso      1.000     Cu          0.97859   
         Cu5       1.0000    0.50000   0.50000   0.50000   Biso      1.000     Cu          0.978558  
         Cu6       1.0000    0.50000   0.50000   0.00000   Biso      1.000     Cu          0.978572  
         Nd1       1.0000    0.75000   0.33333   0.66666   Biso      1.000     Nd          1.966745  
         Nd2       1.0000    0.25000   0.33333   0.66666   Biso      1.000     Nd          1.966749  
         Nd3       1.0000    0.25000   0.66667   0.33334   Biso      1.000     Nd          1.96674   
         Nd4       1.0000    0.75000   0.66667   0.33334   Biso      1.000     Nd          1.966742  
         O1        1.0000    0.40750   0.55680   0.95030   Biso      1.000     O          -0.487603           
         O2        1.0000    0.35920   0.38490   0.57850   Biso      1.000     O          -0.581396           
         O3        1.0000    0.40750   0.39350   0.44320   Biso      1.000     O          -0.487595           
         O4        1.0000    0.35920   0.19360   0.61510   Biso      1.000     O          -0.581412           
         O5        1.0000    0.40750   0.04970   0.60650   Biso      1.000     O          -0.487613           
         O6        1.0000    0.14080   0.38490   0.80640   Biso      1.000     O          -0.581454           
         O7        1.0000    0.09250   0.39350   0.95030   Biso      1.000     O          -0.487597           
         O8        1.0000    0.14080   0.19360   0.57850   Biso      1.000     O          -0.581395           
         O9        1.0000    0.09250   0.04970   0.44320   Biso      1.000     O          -0.487597           
         O10       1.0000    0.14080   0.42150   0.61510   Biso      1.000     O          -0.581417           
         O11       1.0000    0.09250   0.55680   0.60650   Biso      1.000     O          -0.487605           
         O12       1.0000    0.14080   0.61510   0.19360   Biso      1.000     O          -0.581434           
         O13       1.0000    0.09250   0.60650   0.04970   Biso      1.000     O          -0.487598           
         O14       1.0000    0.09250   0.95030   0.55680   Biso      1.000     O          -0.487602           
         O15       1.0000    0.35920   0.42150   0.80640   Biso      1.000     O          -0.581448           
         O16       1.0000    0.14080   0.57850   0.38490   Biso      1.000     O          -0.581421           
         O17       1.0000    0.09250   0.44320   0.39350   Biso      1.000     O          -0.487603           
         O18       1.0000    0.75000   0.52620   0.76310   Biso      1.000     O          -0.168073           
         O19       1.0000    0.75000   0.23690   0.47380   Biso      1.000     O          -0.168045           
         O20       1.0000    0.75000   0.23690   0.76310   Biso      1.000     O          -0.168073           
         O21       1.0000    0.75000   0.47380   0.23690   Biso      1.000     O          -0.168073           
         O22       1.0000    0.75000   0.76310   0.52620   Biso      1.000     O          -0.168045           
         O23       1.0000    0.75000   0.76310   0.23690   Biso      1.000     O          -0.168073           
         O24       1.0000    0.25000   0.47380   0.23690   Biso      1.000     O          -0.168072           
         O25       1.0000    0.25000   0.76310   0.52620   Biso      1.000     O          -0.168043           
         O26       1.0000    0.25000   0.76310   0.23690   Biso      1.000     O          -0.16807  
         O27       1.0000    0.25000   0.52620   0.76310   Biso      1.000     O          -0.168073           
         O28       1.0000    0.14080   0.80640   0.42150   Biso      1.000     O          -0.581409           
         O29       1.0000    0.40750   0.95030   0.39350   Biso      1.000     O          -0.48761  
         O30       1.0000    0.64080   0.42150   0.80640   Biso      1.000     O          -0.581444           
         O31       1.0000    0.40750   0.60650   0.55680   Biso      1.000     O          -0.487603           
         O32       1.0000    0.25000   0.23690   0.47380   Biso      1.000     O          -0.168046           
         O33       1.0000    0.59250   0.55680   0.95030   Biso      1.000     O          -0.487602           
         O34       1.0000    0.64080   0.38490   0.57850   Biso      1.000     O          -0.581406           
         O35       1.0000    0.59250   0.39350   0.44320   Biso      1.000     O          -0.487603           
         O36       1.0000    0.64080   0.19360   0.61510   Biso      1.000     O          -0.581419           
         O37       1.0000    0.59250   0.04970   0.60650   Biso      1.000     O          -0.48761  
         O38       1.0000    0.64080   0.57850   0.19360   Biso      1.000     O          -0.581445           
         O39       1.0000    0.59250   0.44320   0.04970   Biso      1.000     O          -0.487602           
         O40       1.0000    0.64080   0.61510   0.42150   Biso      1.000     O          -0.581405           
         O41       1.0000    0.59250   0.60650   0.55680   Biso      1.000     O          -0.487599           
         O42       1.0000    0.64080   0.80640   0.38490   Biso      1.000     O          -0.581417           
         O43       1.0000    0.59250   0.95030   0.39350   Biso      1.000     O          -0.487613           
         O44       1.0000    0.85920   0.61510   0.19360   Biso      1.000     O          -0.581449           
         O45       1.0000    0.90750   0.60650   0.04970   Biso      1.000     O          -0.487601           
         O46       1.0000    0.85920   0.80640   0.42150   Biso      1.000     O          -0.581403           
         O47       1.0000    0.90750   0.95030   0.55680   Biso      1.000     O          -0.487599           
         O48       1.0000    0.85920   0.57850   0.38490   Biso      1.000     O          -0.581416           
         O49       1.0000    0.90750   0.44320   0.39350   Biso      1.000     O          -0.487607           
         O50       1.0000    0.85920   0.38490   0.80640   Biso      1.000     O          -0.581448           
         O51       1.0000    0.90750   0.39350   0.95030   Biso      1.000     O          -0.4876   
         O52       1.0000    0.85920   0.19360   0.57850   Biso      1.000     O          -0.581405           
         O53       1.0000    0.90750   0.04970   0.44320   Biso      1.000     O          -0.487604           
         O54       1.0000    0.85920   0.42150   0.61510   Biso      1.000     O          -0.581419           
         O55       1.0000    0.90750   0.55680   0.60650   Biso      1.000     O          -0.487604           
         O56       1.0000    0.35920   0.57850   0.19360   Biso      1.000     O          -0.581432           
         O57       1.0000    0.40750   0.44320   0.04970   Biso      1.000     O          -0.487604           
         O58       1.0000    0.35920   0.61510   0.42150   Biso      1.000     O          -0.581404           
         O59       1.0000    0.35920   0.80640   0.38490   Biso      1.000     O          -0.581414           
         O60       1.0000    0.25000   0.23690   0.76310   Biso      1.000     O          -0.168072 