
##########################################################################
#               Crystallographic Information Format file
#               Produced by PyCifRW module
#
#  This is a CIF file.  CIF has been adopted by the International
#  Union of Crystallography as the standard for data archiving and
#  transmission.
#
#  For information on this file format, follow the CIF links at
#  http://www.iucr.org
##########################################################################

data_image0

_cell_length_a                          10.441
_cell_length_b                          10.441
_cell_length_c                          14.13
_cell_angle_alpha                       83.1108
_cell_angle_beta                        83.1108
_cell_angle_gamma                       85.6142
_symmetry_space_group_name_H-M          'P 1'
_symmetry_int_tables_number             1
loop_
  _symmetry_equiv_pos_as_xyz
         'x, y, z' 
loop_
  _atom_site_label
  _atom_site_occupancy
  _atom_site_fract_x
  _atom_site_fract_y
  _atom_site_fract_z
  _atom_site_thermal_displace_type
  _atom_site_B_iso_or_equiv
  _atom_site_type_symbol
  _atom_site_charge
         C1        1.0000    0.47100   0.18900   0.44500   Biso      1.000     C          -0.026811           
         C2        1.0000    0.17100   0.91900   0.45000   Biso      1.000     C          0.604827  
         C3        1.0000    0.13500   0.89500   0.55800   Biso      1.000     C          -0.31679  
         C4        1.0000    0.16400   0.99800   0.61900   Biso      1.000     C          -0.077203           
         C5        1.0000    0.90500   0.50900   0.63500   Biso      1.000     C          0.67185   
         C6        1.0000    0.86700   0.63700   0.57900   Biso      1.000     C          -0.364156           
         C7        1.0000    0.72000   0.66000   0.58900   Biso      1.000     C          -0.026255           
         C8        1.0000    0.12300   0.33900   0.14500   Biso      1.000     C          -0.12124700000000001          
         C9        1.0000    0.49500   0.13700   0.35100   Biso      1.000     C          -0.20836300000000002          
         C10       1.0000    0.75700   0.69900   0.92400   Biso      1.000     C          -0.069503           
         C11       1.0000    0.63800   0.10400   0.32600   Biso      1.000     C          -0.067612           
         C12       1.0000    0.69900   0.75700   0.42400   Biso      1.000     C          -0.069503           
         C13       1.0000    0.08100   0.82900   0.05000   Biso      1.000     C          0.604827  
         C14       1.0000    0.10500   0.86500   0.94200   Biso      1.000     C          -0.31679  
         C15       1.0000    0.00200   0.83600   0.88100   Biso      1.000     C          -0.077203           
         C16       1.0000    0.49100   0.09500   0.86500   Biso      1.000     C          0.67185   
         C17       1.0000    0.36300   0.13300   0.92100   Biso      1.000     C          -0.364156           
         C18       1.0000    0.34000   0.28000   0.91100   Biso      1.000     C          -0.026255           
         C19       1.0000    0.81100   0.52900   0.05500   Biso      1.000     C          -0.026811           
         C20       1.0000    0.66100   0.87700   0.35500   Biso      1.000     C          -0.12124700000000001          
         C21       1.0000    0.87700   0.66100   0.85500   Biso      1.000     C          -0.12124700000000001          
         C22       1.0000    0.10400   0.63800   0.82600   Biso      1.000     C          -0.067612           
         C23       1.0000    0.13700   0.49500   0.85100   Biso      1.000     C          -0.20836300000000002          
         C24       1.0000    0.24300   0.30100   0.07600   Biso      1.000     C          -0.069503           
         C25       1.0000    0.82900   0.08100   0.55000   Biso      1.000     C          0.604827  
         C26       1.0000    0.86500   0.10500   0.44200   Biso      1.000     C          -0.31679  
         C27       1.0000    0.83600   0.00200   0.38100   Biso      1.000     C          -0.077203           
         C28       1.0000    0.09500   0.49100   0.36500   Biso      1.000     C          0.671851  
         C29       1.0000    0.13300   0.36300   0.42100   Biso      1.000     C          -0.364156           
         C30       1.0000    0.28000   0.34000   0.41100   Biso      1.000     C          -0.026255           
         C31       1.0000    0.52900   0.81100   0.55500   Biso      1.000     C          -0.026811           
         C32       1.0000    0.50500   0.86300   0.64900   Biso      1.000     C          -0.20836300000000002          
         C33       1.0000    0.36200   0.89600   0.67400   Biso      1.000     C          -0.067612           
         C34       1.0000    0.33900   0.12300   0.64500   Biso      1.000     C          -0.12124700000000001          
         C35       1.0000    0.30100   0.24300   0.57600   Biso      1.000     C          -0.069503           
         C36       1.0000    0.91900   0.17100   0.95000   Biso      1.000     C          0.604827  
         C37       1.0000    0.89500   0.13500   0.05800   Biso      1.000     C          -0.31679  
         C38       1.0000    0.99800   0.16400   0.11900   Biso      1.000     C          -0.077203           
         C39       1.0000    0.50900   0.90500   0.13500   Biso      1.000     C          0.67185   
         C40       1.0000    0.63700   0.86700   0.07900   Biso      1.000     C          -0.364155           
         C41       1.0000    0.66000   0.72000   0.08900   Biso      1.000     C          -0.026255           
         C42       1.0000    0.18900   0.47100   0.94500   Biso      1.000     C          -0.026811           
         C43       1.0000    0.86300   0.50500   0.14900   Biso      1.000     C          -0.20836300000000002          
         C44       1.0000    0.89600   0.36200   0.17400   Biso      1.000     C          -0.067612           
         Eu1       1.0000    0.76630   0.23370   0.75000   Biso      1.000     Eu          1.41351   
         Eu2       1.0000    0.23370   0.76630   0.25000   Biso      1.000     Eu          1.41351   
         H1        1.0000    0.81860   0.20080   0.41720   Biso      1.000     H          0.11000499999999999           
         H2        1.0000    0.96770   0.11690   0.43440   Biso      1.000     H          0.109173  
         H3        1.0000    0.87600   0.03140   0.31320   Biso      1.000     H          0.082089  
         H4        1.0000    0.88230   0.91430   0.41350   Biso      1.000     H          0.09371499999999999           
         H5        1.0000    0.91000   0.70840   0.61080   Biso      1.000     H          0.121984  
         H6        1.0000    0.68210   0.57650   0.56910   Biso      1.000     H          0.09741   
         H7        1.0000    0.69030   0.67110   0.66100   Biso      1.000     H          0.10065700000000001           
         H8        1.0000    0.50320   0.11460   0.49930   Biso      1.000     H          0.096993  
         H9        1.0000    0.51960   0.27320   0.44530   Biso      1.000     H          0.101369  
         H10       1.0000    0.44460   0.04960   0.35400   Biso      1.000     H          0.118729  
         H11       1.0000    0.46460   0.21060   0.30030   Biso      1.000     H          0.11148499999999999           
         H12       1.0000    0.65320   0.08140   0.25690   Biso      1.000     H          0.082742  
         H13       1.0000    0.68990   0.18950   0.33360   Biso      1.000     H          0.075251  
         H14       1.0000    0.71540   0.86900   0.28780   Biso      1.000     H          0.098334  
         H15       1.0000    0.56100   0.88300   0.35310   Biso      1.000     H          0.098968  
         H16       1.0000    0.90500   0.63240   0.50710   Biso      1.000     H          0.144988  
         H17       1.0000    0.80410   0.73770   0.40870   Biso      1.000     H          0.108727  
         H18       1.0000    0.53540   0.78940   0.69970   Biso      1.000     H          0.11148499999999999           
         H19       1.0000    0.34680   0.91860   0.74310   Biso      1.000     H          0.082742  
         H20       1.0000    0.31010   0.81050   0.66640   Biso      1.000     H          0.075251  
         H21       1.0000    0.28460   0.13100   0.71220   Biso      1.000     H          0.098334  
         H22       1.0000    0.43900   0.11700   0.64690   Biso      1.000     H          0.098968  
         H23       1.0000    0.35360   0.31720   0.58840   Biso      1.000     H          0.113472  
         H24       1.0000    0.19590   0.26230   0.59130   Biso      1.000     H          0.108727  
         H25       1.0000    0.71710   0.82350   0.53050   Biso      1.000     H          0.334013  
         H26       1.0000    0.64640   0.68280   0.41160   Biso      1.000     H          0.113472  
         H27       1.0000    0.11690   0.96770   0.93440   Biso      1.000     H          0.109172  
         H28       1.0000    0.03140   0.87600   0.81320   Biso      1.000     H          0.082089  
         H29       1.0000    0.91430   0.88230   0.91350   Biso      1.000     H          0.09371499999999999           
         H30       1.0000    0.70840   0.91000   0.11080   Biso      1.000     H          0.121984  
         H31       1.0000    0.63240   0.90500   0.00710   Biso      1.000     H          0.144988  
         H32       1.0000    0.57650   0.68210   0.06910   Biso      1.000     H          0.097411  
         H33       1.0000    0.67110   0.69030   0.16100   Biso      1.000     H          0.100658  
         H34       1.0000    0.11460   0.50320   0.99930   Biso      1.000     H          0.096993  
         H35       1.0000    0.27320   0.51960   0.94530   Biso      1.000     H          0.101369  
         H36       1.0000    0.04960   0.44460   0.85400   Biso      1.000     H          0.118729  
         H37       1.0000    0.21060   0.46460   0.80030   Biso      1.000     H          0.11148499999999999           
         H38       1.0000    0.08140   0.65320   0.75690   Biso      1.000     H          0.082742  
         H39       1.0000    0.18950   0.68990   0.83360   Biso      1.000     H          0.075251  
         H40       1.0000    0.86900   0.71540   0.78780   Biso      1.000     H          0.098335  
         H41       1.0000    0.88300   0.56100   0.85310   Biso      1.000     H          0.098968  
         H42       1.0000    0.68280   0.64640   0.91160   Biso      1.000     H          0.113472  
         H43       1.0000    0.73770   0.80410   0.90870   Biso      1.000     H          0.108727  
         H44       1.0000    0.17650   0.28290   0.96950   Biso      1.000     H          0.33401   
         H45       1.0000    0.55540   0.95040   0.64600   Biso      1.000     H          0.118729  
         H46       1.0000    0.48040   0.72680   0.55470   Biso      1.000     H          0.101369  
         H47       1.0000    0.20080   0.81860   0.91720   Biso      1.000     H          0.11000499999999999           
         H48       1.0000    0.30970   0.32890   0.33900   Biso      1.000     H          0.100658  
         H49       1.0000    0.28290   0.17650   0.46950   Biso      1.000     H          0.334013  
         H50       1.0000    0.79920   0.18140   0.08280   Biso      1.000     H          0.11000499999999999           
         H51       1.0000    0.49680   0.88540   0.50070   Biso      1.000     H          0.096993  
         H52       1.0000    0.96860   0.12400   0.18680   Biso      1.000     H          0.082089  
         H53       1.0000    0.08570   0.11770   0.08650   Biso      1.000     H          0.09371499999999999           
         H54       1.0000    0.29160   0.09000   0.88920   Biso      1.000     H          0.121984  
         H55       1.0000    0.36760   0.09500   0.99290   Biso      1.000     H          0.144988  
         H56       1.0000    0.42350   0.31790   0.93090   Biso      1.000     H          0.097411  
         H57       1.0000    0.32890   0.30970   0.83900   Biso      1.000     H          0.100658  
         H58       1.0000    0.88540   0.49680   0.00070   Biso      1.000     H          0.096993  
         H59       1.0000    0.72680   0.48040   0.05470   Biso      1.000     H          0.101369  
         H60       1.0000    0.95040   0.55540   0.14600   Biso      1.000     H          0.118729  
         H61       1.0000    0.78940   0.53540   0.19970   Biso      1.000     H          0.11148499999999999           
         H62       1.0000    0.88310   0.03230   0.06560   Biso      1.000     H          0.109173  
         H63       1.0000    0.81050   0.31010   0.16640   Biso      1.000     H          0.075251  
         H64       1.0000    0.31790   0.42350   0.43090   Biso      1.000     H          0.09741   
         H65       1.0000    0.09500   0.36760   0.49290   Biso      1.000     H          0.144988  
         H66       1.0000    0.09000   0.29160   0.38920   Biso      1.000     H          0.121984  
         H67       1.0000    0.11770   0.08570   0.58650   Biso      1.000     H          0.09371499999999999           
         H68       1.0000    0.12400   0.96860   0.68680   Biso      1.000     H          0.082089  
         H69       1.0000    0.18140   0.79920   0.58280   Biso      1.000     H          0.11000499999999999           
         H70       1.0000    0.03230   0.88310   0.56560   Biso      1.000     H          0.109173  
         H71       1.0000    0.26230   0.19590   0.09130   Biso      1.000     H          0.108727  
         H72       1.0000    0.31720   0.35360   0.08840   Biso      1.000     H          0.113472  
         H73       1.0000    0.11700   0.43900   0.14690   Biso      1.000     H          0.098968  
         H74       1.0000    0.13100   0.28460   0.21220   Biso      1.000     H          0.098335  
         H75       1.0000    0.82350   0.71710   0.03050   Biso      1.000     H          0.33401   
         H76       1.0000    0.91860   0.34680   0.24310   Biso      1.000     H          0.082742  
         N1        1.0000    0.99600   0.69200   0.88700   Biso      1.000     N          -0.148161           
         N2        1.0000    0.30800   0.00400   0.61300   Biso      1.000     N          -0.148161           
         N3        1.0000    0.32770   0.22370   0.47400   Biso      1.000     N          -0.15090599999999998          
         N4        1.0000    0.77630   0.67230   0.02600   Biso      1.000     N          -0.15090399999999998          
         N5        1.0000    0.67230   0.77630   0.52600   Biso      1.000     N          -0.15090699999999999          
         N6        1.0000    0.00400   0.30800   0.11300   Biso      1.000     N          -0.148161           
         N7        1.0000    0.22370   0.32770   0.97400   Biso      1.000     N          -0.15090399999999998          
         N8        1.0000    0.69200   0.99600   0.38700   Biso      1.000     N          -0.148161           
         O1        1.0000    0.18400   0.55800   0.32300   Biso      1.000     O          -0.6946100000000001           
         O2        1.0000    0.02380   0.47780   0.63600   Biso      1.000     O          -0.623498           
         O3        1.0000    0.81400   0.22400   0.90800   Biso      1.000     O          -0.702673           
         O4        1.0000    0.03410   0.19810   0.91360   Biso      1.000     O          -0.58575  
         O5        1.0000    0.44200   0.81600   0.17700   Biso      1.000     O          -0.6946100000000001           
         O6        1.0000    0.52220   0.97620   0.86400   Biso      1.000     O          -0.623498           
         O7        1.0000    0.22400   0.81400   0.40800   Biso      1.000     O          -0.702673           
         O8        1.0000    0.81600   0.44200   0.67700   Biso      1.000     O          -0.6946100000000001           
         O9        1.0000    0.97620   0.52220   0.36400   Biso      1.000     O          -0.623498           
         O10       1.0000    0.18600   0.77600   0.09200   Biso      1.000     O          -0.702673           
         O11       1.0000    0.96590   0.80190   0.08640   Biso      1.000     O          -0.58575  
         O12       1.0000    0.55800   0.18400   0.82300   Biso      1.000     O          -0.6946100000000001           
         O13       1.0000    0.47780   0.02380   0.13600   Biso      1.000     O          -0.623498           
         O14       1.0000    0.80190   0.96590   0.58640   Biso      1.000     O          -0.585751           
         O15       1.0000    0.19810   0.03410   0.41360   Biso      1.000     O          -0.585751           
         O16       1.0000    0.77600   0.18600   0.59200   Biso      1.000     O          -0.702673 