
##########################################################################
#               Crystallographic Information Format file
#               Produced by PyCifRW module
#
#  This is a CIF file.  CIF has been adopted by the International
#  Union of Crystallography as the standard for data archiving and
#  transmission.
#
#  For information on this file format, follow the CIF links at
#  http://www.iucr.org
##########################################################################

data_image0

_cell_length_a                          10.4562
_cell_length_b                          10.4562
_cell_length_c                          14.264
_cell_angle_alpha                       83.3213
_cell_angle_beta                        83.3213
_cell_angle_gamma                       85.3259
_symmetry_space_group_name_H-M          'P 1'
_symmetry_int_tables_number             1
loop_
  _symmetry_equiv_pos_as_xyz
         'x, y, z' 
loop_
  _atom_site_label
  _atom_site_occupancy
  _atom_site_fract_x
  _atom_site_fract_y
  _atom_site_fract_z
  _atom_site_thermal_displace_type
  _atom_site_B_iso_or_equiv
  _atom_site_type_symbol
  _atom_site_charge
         C1        1.0000    0.18930   0.46790   0.94600   Biso      1.000     C          -0.043991           
         C2        1.0000    0.91640   0.17840   0.94700   Biso      1.000     C          0.648739  
         C3        1.0000    0.89100   0.13700   0.05400   Biso      1.000     C          -0.321328           
         C4        1.0000    0.99460   0.16260   0.11340   Biso      1.000     C          -0.054134           
         C5        1.0000    0.50800   0.90000   0.13500   Biso      1.000     C          0.683018  
         C6        1.0000    0.63600   0.86400   0.07900   Biso      1.000     C          -0.34284  
         C7        1.0000    0.65800   0.72000   0.08810   Biso      1.000     C          -0.023798           
         C8        1.0000    0.33600   0.12400   0.64280   Biso      1.000     C          -0.110292           
         C9        1.0000    0.13600   0.49800   0.85220   Biso      1.000     C          -0.195938           
         C10       1.0000    0.70300   0.75900   0.42580   Biso      1.000     C          -0.057929           
         C11       1.0000    0.10640   0.64040   0.82890   Biso      1.000     C          -0.066557           
         C12       1.0000    0.75900   0.70300   0.92580   Biso      1.000     C          -0.057929           
         C13       1.0000    0.82160   0.08360   0.55300   Biso      1.000     C          0.648739  
         C14       1.0000    0.86300   0.10900   0.44600   Biso      1.000     C          -0.321328           
         C15       1.0000    0.83740   0.00540   0.38660   Biso      1.000     C          -0.054134           
         C16       1.0000    0.10000   0.49200   0.36500   Biso      1.000     C          0.683018  
         C17       1.0000    0.13600   0.36400   0.42100   Biso      1.000     C          -0.34284  
         C18       1.0000    0.28000   0.34200   0.41190   Biso      1.000     C          -0.023798           
         C19       1.0000    0.53210   0.81070   0.55400   Biso      1.000     C          -0.043991           
         C20       1.0000    0.87600   0.66400   0.85720   Biso      1.000     C          -0.110291           
         C21       1.0000    0.66400   0.87600   0.35720   Biso      1.000     C          -0.110291           
         C22       1.0000    0.64040   0.10640   0.32890   Biso      1.000     C          -0.066557           
         C23       1.0000    0.49800   0.13600   0.35220   Biso      1.000     C          -0.195938           
         C24       1.0000    0.29700   0.24100   0.57420   Biso      1.000     C          -0.057929           
         C25       1.0000    0.08360   0.82160   0.05300   Biso      1.000     C          0.648739  
         C26       1.0000    0.10900   0.86300   0.94600   Biso      1.000     C          -0.321328           
         C27       1.0000    0.00540   0.83740   0.88660   Biso      1.000     C          -0.054134           
         C28       1.0000    0.49200   0.10000   0.86500   Biso      1.000     C          0.683018  
         C29       1.0000    0.36400   0.13600   0.92100   Biso      1.000     C          -0.34284  
         C30       1.0000    0.34200   0.28000   0.91190   Biso      1.000     C          -0.023798           
         C31       1.0000    0.81070   0.53210   0.05400   Biso      1.000     C          -0.04399  
         C32       1.0000    0.86400   0.50200   0.14780   Biso      1.000     C          -0.195938           
         C33       1.0000    0.89360   0.35960   0.17110   Biso      1.000     C          -0.066557           
         C34       1.0000    0.12400   0.33600   0.14280   Biso      1.000     C          -0.110292           
         C35       1.0000    0.24100   0.29700   0.07420   Biso      1.000     C          -0.057929           
         C36       1.0000    0.17840   0.91640   0.44700   Biso      1.000     C          0.648739  
         C37       1.0000    0.13700   0.89100   0.55400   Biso      1.000     C          -0.321328           
         C38       1.0000    0.16260   0.99460   0.61340   Biso      1.000     C          -0.054134           
         C39       1.0000    0.90000   0.50800   0.63500   Biso      1.000     C          0.683018  
         C40       1.0000    0.86400   0.63600   0.57900   Biso      1.000     C          -0.34284  
         C41       1.0000    0.72000   0.65800   0.58810   Biso      1.000     C          -0.023798           
         C42       1.0000    0.46790   0.18930   0.44600   Biso      1.000     C          -0.04399  
         C43       1.0000    0.50200   0.86400   0.64780   Biso      1.000     C          -0.195938           
         C44       1.0000    0.35960   0.89360   0.67110   Biso      1.000     C          -0.066557           
         Gd1       1.0000    0.22880   0.77120   0.25000   Biso      1.000     Gd          1.499035  
         Gd2       1.0000    0.77120   0.22880   0.75000   Biso      1.000     Gd          1.499035  
         H1        1.0000    0.20080   0.81860   0.91720   Biso      1.000     H          0.098244  
         H2        1.0000    0.11690   0.96770   0.93440   Biso      1.000     H          0.139125  
         H3        1.0000    0.03140   0.87600   0.81320   Biso      1.000     H          0.057382  
         H4        1.0000    0.91430   0.88230   0.91350   Biso      1.000     H          0.097804  
         H5        1.0000    0.70840   0.91000   0.11080   Biso      1.000     H          0.123235  
         H6        1.0000    0.57650   0.68210   0.06910   Biso      1.000     H          0.090754  
         H7        1.0000    0.67110   0.69030   0.16100   Biso      1.000     H          0.096213  
         H8        1.0000    0.11460   0.50320   0.99930   Biso      1.000     H          0.087532  
         H9        1.0000    0.27320   0.51960   0.94530   Biso      1.000     H          0.081007  
         H10       1.0000    0.04960   0.44460   0.85400   Biso      1.000     H          0.100258  
         H11       1.0000    0.21060   0.46460   0.80030   Biso      1.000     H          0.097673  
         H12       1.0000    0.08140   0.65320   0.75690   Biso      1.000     H          0.075576  
         H13       1.0000    0.18950   0.68990   0.83360   Biso      1.000     H          0.083615  
         H14       1.0000    0.86900   0.71540   0.78780   Biso      1.000     H          0.094443  
         H15       1.0000    0.88300   0.56100   0.85310   Biso      1.000     H          0.066051  
         H16       1.0000    0.63240   0.90500   0.00710   Biso      1.000     H          0.146291  
         H17       1.0000    0.73770   0.80410   0.90870   Biso      1.000     H          0.117044  
         H18       1.0000    0.78940   0.53540   0.19970   Biso      1.000     H          0.097673  
         H19       1.0000    0.91860   0.34680   0.24310   Biso      1.000     H          0.075576  
         H20       1.0000    0.81050   0.31010   0.16640   Biso      1.000     H          0.083615  
         H21       1.0000    0.13100   0.28460   0.21220   Biso      1.000     H          0.094443  
         H22       1.0000    0.11700   0.43900   0.14690   Biso      1.000     H          0.066051  
         H23       1.0000    0.31720   0.35360   0.08840   Biso      1.000     H          0.084959  
         H24       1.0000    0.26230   0.19590   0.09130   Biso      1.000     H          0.117043  
         H25       1.0000    0.83200   0.70980   0.04040   Biso      1.000     H          0.308867  
         H26       1.0000    0.68280   0.64640   0.91160   Biso      1.000     H          0.084958  
         H27       1.0000    0.96770   0.11690   0.43440   Biso      1.000     H          0.139125  
         H28       1.0000    0.87600   0.03140   0.31320   Biso      1.000     H          0.057382  
         H29       1.0000    0.88230   0.91430   0.41350   Biso      1.000     H          0.097804  
         H30       1.0000    0.91000   0.70840   0.61080   Biso      1.000     H          0.123235  
         H31       1.0000    0.90500   0.63240   0.50710   Biso      1.000     H          0.146291  
         H32       1.0000    0.68210   0.57650   0.56910   Biso      1.000     H          0.090754  
         H33       1.0000    0.69030   0.67110   0.66100   Biso      1.000     H          0.096213  
         H34       1.0000    0.50320   0.11460   0.49930   Biso      1.000     H          0.087532  
         H35       1.0000    0.51960   0.27320   0.44530   Biso      1.000     H          0.081008  
         H36       1.0000    0.44460   0.04960   0.35400   Biso      1.000     H          0.100257  
         H37       1.0000    0.46460   0.21060   0.30030   Biso      1.000     H          0.097673  
         H38       1.0000    0.65320   0.08140   0.25690   Biso      1.000     H          0.075576  
         H39       1.0000    0.68990   0.18950   0.33360   Biso      1.000     H          0.083615  
         H40       1.0000    0.71540   0.86900   0.28780   Biso      1.000     H          0.094444  
         H41       1.0000    0.56100   0.88300   0.35310   Biso      1.000     H          0.066051  
         H42       1.0000    0.64640   0.68280   0.41160   Biso      1.000     H          0.084958  
         H43       1.0000    0.80410   0.73770   0.40870   Biso      1.000     H          0.117044  
         H44       1.0000    0.29020   0.16800   0.45960   Biso      1.000     H          0.308864  
         H45       1.0000    0.95040   0.55540   0.14600   Biso      1.000     H          0.100258  
         H46       1.0000    0.72680   0.48040   0.05470   Biso      1.000     H          0.081008  
         H47       1.0000    0.81860   0.20080   0.41720   Biso      1.000     H          0.098243  
         H48       1.0000    0.32890   0.30970   0.83900   Biso      1.000     H          0.096213  
         H49       1.0000    0.16800   0.29020   0.95960   Biso      1.000     H          0.308867  
         H50       1.0000    0.18140   0.79920   0.58280   Biso      1.000     H          0.098244  
         H51       1.0000    0.88540   0.49680   0.00070   Biso      1.000     H          0.087532  
         H52       1.0000    0.12400   0.96860   0.68680   Biso      1.000     H          0.057382  
         H53       1.0000    0.11770   0.08570   0.58650   Biso      1.000     H          0.097804  
         H54       1.0000    0.09000   0.29160   0.38920   Biso      1.000     H          0.123235  
         H55       1.0000    0.09500   0.36760   0.49290   Biso      1.000     H          0.146291  
         H56       1.0000    0.31790   0.42350   0.43090   Biso      1.000     H          0.090754  
         H57       1.0000    0.30970   0.32890   0.33900   Biso      1.000     H          0.096213  
         H58       1.0000    0.49680   0.88540   0.50070   Biso      1.000     H          0.087532  
         H59       1.0000    0.48040   0.72680   0.55470   Biso      1.000     H          0.081007  
         H60       1.0000    0.55540   0.95040   0.64600   Biso      1.000     H          0.100258  
         H61       1.0000    0.53540   0.78940   0.69970   Biso      1.000     H          0.097673  
         H62       1.0000    0.03230   0.88310   0.56560   Biso      1.000     H          0.139125  
         H63       1.0000    0.31010   0.81050   0.66640   Biso      1.000     H          0.083615  
         H64       1.0000    0.42350   0.31790   0.93090   Biso      1.000     H          0.090754  
         H65       1.0000    0.36760   0.09500   0.99290   Biso      1.000     H          0.146291  
         H66       1.0000    0.29160   0.09000   0.88920   Biso      1.000     H          0.123235  
         H67       1.0000    0.08570   0.11770   0.08650   Biso      1.000     H          0.097804  
         H68       1.0000    0.96860   0.12400   0.18680   Biso      1.000     H          0.057382  
         H69       1.0000    0.79920   0.18140   0.08280   Biso      1.000     H          0.098243  
         H70       1.0000    0.88310   0.03230   0.06560   Biso      1.000     H          0.139125  
         H71       1.0000    0.19590   0.26230   0.59130   Biso      1.000     H          0.117044  
         H72       1.0000    0.35360   0.31720   0.58840   Biso      1.000     H          0.084958  
         H73       1.0000    0.43900   0.11700   0.64690   Biso      1.000     H          0.066051  
         H74       1.0000    0.28460   0.13100   0.71220   Biso      1.000     H          0.094444  
         H75       1.0000    0.70980   0.83200   0.54040   Biso      1.000     H          0.308864  
         H76       1.0000    0.34680   0.91860   0.74310   Biso      1.000     H          0.075576  
         N1        1.0000    0.69580   0.99720   0.38940   Biso      1.000     N          -0.165174           
         N2        1.0000    0.00280   0.30420   0.11060   Biso      1.000     N          -0.165174           
         N3        1.0000    0.22140   0.32700   0.97280   Biso      1.000     N          -0.101156           
         N4        1.0000    0.67300   0.77860   0.52720   Biso      1.000     N          -0.101154           
         N5        1.0000    0.77860   0.67300   0.02720   Biso      1.000     N          -0.101156           
         N6        1.0000    0.30420   0.00280   0.61060   Biso      1.000     N          -0.165174           
         N7        1.0000    0.32700   0.22140   0.47280   Biso      1.000     N          -0.101154           
         N8        1.0000    0.99720   0.69580   0.88940   Biso      1.000     N          -0.165174           
         O1        1.0000    0.55680   0.18680   0.82150   Biso      1.000     O          -0.740716           
         O2        1.0000    0.47700   0.02080   0.13640   Biso      1.000     O          -0.619778           
         O3        1.0000    0.13800   0.84200   0.40000   Biso      1.000     O          -0.663935           
         O4        1.0000    0.19830   0.02830   0.41290   Biso      1.000     O          -0.61978  
         O5        1.0000    0.81320   0.44320   0.67850   Biso      1.000     O          -0.740716           
         O6        1.0000    0.97920   0.52300   0.36360   Biso      1.000     O          -0.619778           
         O7        1.0000    0.84200   0.13800   0.90000   Biso      1.000     O          -0.663935           
         O8        1.0000    0.44320   0.81320   0.17850   Biso      1.000     O          -0.740715           
         O9        1.0000    0.52300   0.97920   0.86360   Biso      1.000     O          -0.619778           
         O10       1.0000    0.86200   0.15800   0.60000   Biso      1.000     O          -0.663935           
         O11       1.0000    0.80170   0.97170   0.58710   Biso      1.000     O          -0.61978  
         O12       1.0000    0.18680   0.55680   0.32150   Biso      1.000     O          -0.740716           
         O13       1.0000    0.02080   0.47700   0.63640   Biso      1.000     O          -0.619778           
         O14       1.0000    0.97170   0.80170   0.08710   Biso      1.000     O          -0.61978  
         O15       1.0000    0.02830   0.19830   0.91290   Biso      1.000     O          -0.619781           
         O16       1.0000    0.15800   0.86200   0.10000   Biso      1.000     O          -0.663935 