
##########################################################################
#               Crystallographic Information Format file
#               Produced by PyCifRW module
#
#  This is a CIF file.  CIF has been adopted by the International
#  Union of Crystallography as the standard for data archiving and
#  transmission.
#
#  For information on this file format, follow the CIF links at
#  http://www.iucr.org
##########################################################################

data_image0

_cell_length_a                          8.509
_cell_length_b                          17.1579
_cell_length_c                          17.1579
_cell_angle_alpha                       118.708
_cell_angle_beta                        97.4945
_cell_angle_gamma                       82.5055
_symmetry_space_group_name_H-M          'P 1'
_symmetry_int_tables_number             1
loop_
  _symmetry_equiv_pos_as_xyz
         'x, y, z' 
loop_
  _atom_site_label
  _atom_site_occupancy
  _atom_site_fract_x
  _atom_site_fract_y
  _atom_site_fract_z
  _atom_site_thermal_displace_type
  _atom_site_B_iso_or_equiv
  _atom_site_type_symbol
  _atom_site_charge
         C1        1.0000    0.50400   0.39490   0.01790   Biso      1.000     C          -0.056553           
         C2        1.0000    0.13400   0.42360   0.82700   Biso      1.000     C          0.641965  
         C3        1.0000    0.23200   0.41840   0.75740   Biso      1.000     C          -0.361593           
         C4        1.0000    0.39500   0.36740   0.75180   Biso      1.000     C          -0.082881           
         C5        1.0000    0.60390   0.86860   0.02800   Biso      1.000     C          0.6910109999999999  
         C6        1.0000    0.52400   0.79540   0.02660   Biso      1.000     C          -0.377339           
         C7        1.0000    0.63400   0.74650   0.06790   Biso      1.000     C          -0.026545999999999997         
         C8        1.0000    0.12800   0.15650   0.64610   Biso      1.000     C          -0.112622           
         C9        1.0000    0.37000   0.44310   0.07890   Biso      1.000     C          -0.291585           
         C10       1.0000    0.92800   0.86300   0.28500   Biso      1.000     C          -0.185886           
         C11       1.0000    0.43200   0.51140   0.16940   Biso      1.000     C          -0.051438           
         C12       1.0000    0.42800   0.71500   0.13700   Biso      1.000     C          -0.185882           
         C13       1.0000    0.36600   0.82700   0.42360   Biso      1.000     C          0.641965  
         C14       1.0000    0.26800   0.75740   0.41840   Biso      1.000     C          -0.361593           
         C15       1.0000    0.10500   0.75180   0.36740   Biso      1.000     C          -0.082881           
         C16       1.0000    0.89610   0.02800   0.86860   Biso      1.000     C          0.691012  
         C17       1.0000    0.97600   0.02660   0.79540   Biso      1.000     C          -0.377339           
         C18       1.0000    0.86600   0.06790   0.74650   Biso      1.000     C          -0.026545999999999997         
         C19       1.0000    0.99600   0.01790   0.39490   Biso      1.000     C          -0.056553           
         C20       1.0000    0.37200   0.64610   0.15650   Biso      1.000     C          -0.112632           
         C21       1.0000    0.87200   0.84350   0.35390   Biso      1.000     C          -0.112622           
         C22       1.0000    0.93200   0.83060   0.48860   Biso      1.000     C          -0.051438           
         C23       1.0000    0.87000   0.92110   0.55690   Biso      1.000     C          -0.291585           
         C24       1.0000    0.07200   0.13700   0.71500   Biso      1.000     C          -0.185886           
         C25       1.0000    0.86600   0.57640   0.17300   Biso      1.000     C          0.641965  
         C26       1.0000    0.76800   0.58160   0.24260   Biso      1.000     C          -0.361593           
         C27       1.0000    0.60500   0.63260   0.24820   Biso      1.000     C          -0.082881           
         C28       1.0000    0.39610   0.13140   0.97200   Biso      1.000     C          0.6910109999999999  
         C29       1.0000    0.47600   0.20460   0.97340   Biso      1.000     C          -0.377339           
         C30       1.0000    0.36600   0.25350   0.93210   Biso      1.000     C          -0.026545999999999997         
         C31       1.0000    0.49600   0.60510   0.98210   Biso      1.000     C          -0.056553           
         C32       1.0000    0.63000   0.55690   0.92110   Biso      1.000     C          -0.291585           
         C33       1.0000    0.56800   0.48860   0.83060   Biso      1.000     C          -0.051438           
         C34       1.0000    0.62800   0.35390   0.84350   Biso      1.000     C          -0.112632           
         C35       1.0000    0.57200   0.28500   0.86300   Biso      1.000     C          -0.185882           
         C36       1.0000    0.63400   0.17300   0.57640   Biso      1.000     C          0.641965  
         C37       1.0000    0.73200   0.24260   0.58160   Biso      1.000     C          -0.361593           
         C38       1.0000    0.89500   0.24820   0.63260   Biso      1.000     C          -0.082881           
         C39       1.0000    0.10390   0.97200   0.13140   Biso      1.000     C          0.691012  
         C40       1.0000    0.02400   0.97340   0.20460   Biso      1.000     C          -0.377339           
         C41       1.0000    0.13400   0.93210   0.25350   Biso      1.000     C          -0.026545999999999997         
         C42       1.0000    0.00400   0.98210   0.60510   Biso      1.000     C          -0.056553           
         C43       1.0000    0.13000   0.07890   0.44310   Biso      1.000     C          -0.291585           
         C44       1.0000    0.06800   0.16940   0.51140   Biso      1.000     C          -0.051438           
         Ce1       1.0000    0.25000   0.99093   0.99093   Biso      1.000     Ce          1.246759  
         Ce2       1.0000    0.75000   0.00907   0.00907   Biso      1.000     Ce          1.246758  
         H1        1.0000    0.83110   0.61600   0.30760   Biso      1.000     H          0.122495  
         H2        1.0000    0.71140   0.52110   0.22290   Biso      1.000     H          0.106894  
         H3        1.0000    0.54630   0.63770   0.30430   Biso      1.000     H          0.049181  
         H4        1.0000    0.61550   0.70060   0.28040   Biso      1.000     H          0.088811  
         H5        1.0000    0.48830   0.74770   0.96010   Biso      1.000     H          0.139723  
         H6        1.0000    0.73780   0.71660   0.02940   Biso      1.000     H          0.121331  
         H7        1.0000    0.67120   0.79230   0.13370   Biso      1.000     H          0.10414200000000001           
         H8        1.0000    0.56490   0.43410   0.00690   Biso      1.000     H          0.11468099999999999           
         H9        1.0000    0.57390   0.36320   0.04180   Biso      1.000     H          0.09513200000000001           
         H10       1.0000    0.32600   0.40220   0.08480   Biso      1.000     H          0.138284  
         H11       1.0000    0.29320   0.46020   0.05380   Biso      1.000     H          0.158564  
         H12       1.0000    0.33490   0.53780   0.21260   Biso      1.000     H          0.092632  
         H13       1.0000    0.52510   0.48850   0.19170   Biso      1.000     H          0.092303  
         H14       1.0000    0.28820   0.60740   0.10300   Biso      1.000     H          0.097039  
         H15       1.0000    0.31360   0.67850   0.20470   Biso      1.000     H          0.10310599999999999           
         H16       1.0000    0.42540   0.81660   0.05140   Biso      1.000     H          0.151304  
         H17       1.0000    0.45520   0.74990   0.19610   Biso      1.000     H          0.13436099999999998           
         H18       1.0000    0.70680   0.53980   0.94620   Biso      1.000     H          0.158564  
         H19       1.0000    0.66510   0.46220   0.78740   Biso      1.000     H          0.092632  
         H20       1.0000    0.47490   0.51150   0.80830   Biso      1.000     H          0.092302  
         H21       1.0000    0.71180   0.39260   0.89700   Biso      1.000     H          0.097039  
         H22       1.0000    0.68640   0.32150   0.79530   Biso      1.000     H          0.10310599999999999           
         H23       1.0000    0.65700   0.25150   0.87490   Biso      1.000     H          0.12337000000000001           
         H24       1.0000    0.54480   0.25010   0.80390   Biso      1.000     H          0.13436099999999998           
         H25       1.0000    0.63030   0.64950   0.10350   Biso      1.000     H          0.25904   
         H26       1.0000    0.34300   0.74850   0.12510   Biso      1.000     H          0.12337000000000001           
         H27       1.0000    0.21140   0.77710   0.47890   Biso      1.000     H          0.106894  
         H28       1.0000    0.04630   0.69570   0.36230   Biso      1.000     H          0.049181  
         H29       1.0000    0.11550   0.71960   0.29940   Biso      1.000     H          0.088811  
         H30       1.0000    0.98830   0.03990   0.25230   Biso      1.000     H          0.139723  
         H31       1.0000    0.92540   0.94860   0.18340   Biso      1.000     H          0.151304  
         H32       1.0000    0.23780   0.97060   0.28340   Biso      1.000     H          0.121331  
         H33       1.0000    0.17120   0.86630   0.20770   Biso      1.000     H          0.10414200000000001           
         H34       1.0000    0.06490   0.99310   0.56590   Biso      1.000     H          0.11468099999999999           
         H35       1.0000    0.07390   0.95820   0.63680   Biso      1.000     H          0.09513200000000001           
         H36       1.0000    0.82600   0.91520   0.59780   Biso      1.000     H          0.138284  
         H37       1.0000    0.79320   0.94620   0.53980   Biso      1.000     H          0.158564  
         H38       1.0000    0.83490   0.78740   0.46220   Biso      1.000     H          0.092632  
         H39       1.0000    0.02510   0.80830   0.51150   Biso      1.000     H          0.092303  
         H40       1.0000    0.78820   0.89700   0.39260   Biso      1.000     H          0.097039  
         H41       1.0000    0.81360   0.79530   0.32150   Biso      1.000     H          0.103105  
         H42       1.0000    0.84300   0.87490   0.25150   Biso      1.000     H          0.12337000000000001           
         H43       1.0000    0.95520   0.80390   0.25010   Biso      1.000     H          0.13436099999999998           
         H44       1.0000    0.86970   0.10350   0.64950   Biso      1.000     H          0.25904   
         H45       1.0000    0.67400   0.59780   0.91520   Biso      1.000     H          0.138284  
         H46       1.0000    0.42610   0.63680   0.95820   Biso      1.000     H          0.09513200000000001           
         H47       1.0000    0.33110   0.69240   0.38400   Biso      1.000     H          0.12249600000000001           
         H48       1.0000    0.32880   0.20770   0.86630   Biso      1.000     H          0.10414200000000001           
         H49       1.0000    0.36970   0.35050   0.89650   Biso      1.000     H          0.25904   
         H50       1.0000    0.66890   0.30760   0.61600   Biso      1.000     H          0.122495  
         H51       1.0000    0.43510   0.56590   0.99310   Biso      1.000     H          0.11468099999999999           
         H52       1.0000    0.95370   0.30430   0.63770   Biso      1.000     H          0.049181  
         H53       1.0000    0.88450   0.28040   0.70060   Biso      1.000     H          0.088811  
         H54       1.0000    0.01170   0.96010   0.74770   Biso      1.000     H          0.139723  
         H55       1.0000    0.07460   0.05140   0.81660   Biso      1.000     H          0.151304  
         H56       1.0000    0.76220   0.02940   0.71660   Biso      1.000     H          0.121331  
         H57       1.0000    0.82880   0.13370   0.79230   Biso      1.000     H          0.10414200000000001           
         H58       1.0000    0.93510   0.00690   0.43410   Biso      1.000     H          0.11468099999999999           
         H59       1.0000    0.92610   0.04180   0.36320   Biso      1.000     H          0.09513200000000001           
         H60       1.0000    0.17400   0.08480   0.40220   Biso      1.000     H          0.138284  
         H61       1.0000    0.20680   0.05380   0.46020   Biso      1.000     H          0.158564  
         H62       1.0000    0.78860   0.22290   0.52110   Biso      1.000     H          0.106894  
         H63       1.0000    0.97490   0.19170   0.48850   Biso      1.000     H          0.092303  
         H64       1.0000    0.26220   0.28340   0.97060   Biso      1.000     H          0.121331  
         H65       1.0000    0.57460   0.18340   0.94860   Biso      1.000     H          0.151304  
         H66       1.0000    0.51170   0.25230   0.03990   Biso      1.000     H          0.139723  
         H67       1.0000    0.38450   0.29940   0.71960   Biso      1.000     H          0.088811  
         H68       1.0000    0.45370   0.36230   0.69570   Biso      1.000     H          0.049181  
         H69       1.0000    0.16890   0.38400   0.69240   Biso      1.000     H          0.122495  
         H70       1.0000    0.28860   0.47890   0.77710   Biso      1.000     H          0.106894  
         H71       1.0000    0.04480   0.19610   0.74990   Biso      1.000     H          0.13436099999999998           
         H72       1.0000    0.15700   0.12510   0.74850   Biso      1.000     H          0.12337000000000001           
         H73       1.0000    0.18640   0.20470   0.67850   Biso      1.000     H          0.103105  
         H74       1.0000    0.21180   0.10300   0.60740   Biso      1.000     H          0.097039  
         H75       1.0000    0.13030   0.89650   0.35050   Biso      1.000     H          0.25904099999999997           
         H76       1.0000    0.16510   0.21260   0.53780   Biso      1.000     H          0.092632  
         N1        1.0000    0.99900   0.83240   0.41340   Biso      1.000     N          -0.147596           
         N2        1.0000    0.50100   0.41340   0.83240   Biso      1.000     N          -0.147595           
         N3        1.0000    0.44590   0.32530   0.92850   Biso      1.000     N          0.0005650000000000001         
         N4        1.0000    0.05410   0.92850   0.32530   Biso      1.000     N          0.0005650000000000001         
         N5        1.0000    0.55410   0.67470   0.07150   Biso      1.000     N          0.0005650000000000001         
         N6        1.0000    0.00100   0.16760   0.58660   Biso      1.000     N          -0.147596           
         N7        1.0000    0.94590   0.07150   0.67470   Biso      1.000     N          0.0005650000000000001         
         N8        1.0000    0.49900   0.58660   0.16760   Biso      1.000     N          -0.147595           
         O1        1.0000    0.74980   0.87490   0.04210   Biso      1.000     O          -0.559288           
         O2        1.0000    0.48510   0.07460   0.99060   Biso      1.000     O          -0.691805           
         O3        1.0000    0.51400   0.15370   0.52130   Biso      1.000     O          -0.651562           
         O4        1.0000    0.67010   0.13980   0.62800   Biso      1.000     O          -0.652617           
         O5        1.0000    0.75020   0.04210   0.87490   Biso      1.000     O          -0.559287           
         O6        1.0000    0.01490   0.99060   0.07460   Biso      1.000     O          -0.691804           
         O7        1.0000    0.01400   0.47870   0.84630   Biso      1.000     O          -0.651562           
         O8        1.0000    0.25020   0.12510   0.95790   Biso      1.000     O          -0.559288           
         O9        1.0000    0.51490   0.92540   0.00940   Biso      1.000     O          -0.691805           
         O10       1.0000    0.48600   0.84630   0.47870   Biso      1.000     O          -0.651562           
         O11       1.0000    0.32990   0.86020   0.37200   Biso      1.000     O          -0.652617           
         O12       1.0000    0.24980   0.95790   0.12510   Biso      1.000     O          -0.559287           
         O13       1.0000    0.98510   0.00940   0.92540   Biso      1.000     O          -0.691804           
         O14       1.0000    0.82990   0.62800   0.13980   Biso      1.000     O          -0.652617           
         O15       1.0000    0.17010   0.37200   0.86020   Biso      1.000     O          -0.652617           
         O16       1.0000    0.98600   0.52130   0.15370   Biso      1.000     O          -0.651562 