
##########################################################################
#               Crystallographic Information Format file
#               Produced by PyCifRW module
#
#  This is a CIF file.  CIF has been adopted by the International
#  Union of Crystallography as the standard for data archiving and
#  transmission.
#
#  For information on this file format, follow the CIF links at
#  http://www.iucr.org
##########################################################################

data_image0

_cell_length_a                          9.7577
_cell_length_b                          11.319
_cell_length_c                          14.5156
_cell_angle_alpha                       91.0617
_cell_angle_beta                        90
_cell_angle_gamma                       90
_symmetry_space_group_name_H-M          'P 1'
_symmetry_int_tables_number             1
loop_
  _symmetry_equiv_pos_as_xyz
         'x, y, z' 
loop_
  _atom_site_label
  _atom_site_occupancy
  _atom_site_fract_x
  _atom_site_fract_y
  _atom_site_fract_z
  _atom_site_thermal_displace_type
  _atom_site_B_iso_or_equiv
  _atom_site_type_symbol
  _atom_site_charge
         C1        1.0000    0.28840   0.06869   0.95389   Biso      1.000     C          0.538241  
         C2        1.0000    0.70550   0.57709   0.04189   Biso      1.000     C          0.522479  
         C3        1.0000    0.12640   0.95527   0.19007   Biso      1.000     C          0.516683  
         C4        1.0000    0.11420   0.74298   0.97168   Biso      1.000     C          0.530945  
         C5        1.0000    0.71160   0.93131   0.04611   Biso      1.000     C          0.536284  
         C6        1.0000    0.31620   0.66553   0.17063   Biso      1.000     C          0.522694  
         C7        1.0000    0.50090   0.98677   0.28547   Biso      1.000     C          0.518757  
         C8        1.0000    0.20550   0.92291   0.45811   Biso      1.000     C          0.524253  
         C9        1.0000    0.62640   0.54473   0.30993   Biso      1.000     C          0.516988  
         C10       1.0000    0.61420   0.75702   0.52832   Biso      1.000     C          0.530877  
         C11       1.0000    0.21160   0.56869   0.45389   Biso      1.000     C          0.536922  
         C12       1.0000    0.18380   0.16553   0.67063   Biso      1.000     C          0.528095  
         C13       1.0000    0.99910   0.48677   0.78547   Biso      1.000     C          0.515319  
         C14       1.0000    0.29450   0.42291   0.95811   Biso      1.000     C          0.521799  
         C15       1.0000    0.87360   0.04473   0.80993   Biso      1.000     C          0.515515  
         C16       1.0000    0.88580   0.25702   0.02832   Biso      1.000     C          0.529174  
         C17       1.0000    0.68380   0.33447   0.82937   Biso      1.000     C          0.528085  
         C18       1.0000    0.49910   0.01323   0.71453   Biso      1.000     C          0.515847  
         C19       1.0000    0.79450   0.07709   0.54189   Biso      1.000     C          0.5241399999999999  
         C20       1.0000    0.37360   0.45527   0.69007   Biso      1.000     C          0.5163939999999999  
         C21       1.0000    0.38580   0.24298   0.47168   Biso      1.000     C          0.53068   
         C22       1.0000    0.78840   0.43131   0.54611   Biso      1.000     C          0.534826  
         C23       1.0000    0.00090   0.51323   0.21453   Biso      1.000     C          0.5181680000000001  
         C24       1.0000    0.81620   0.83447   0.32937   Biso      1.000     C          0.5239520000000001  
         Fe1       1.0000    0.91571   0.75587   0.13143   Biso      1.000     Fe          0.929284  
         Fe2       1.0000    0.59979   0.76134   0.18501   Biso      1.000     Fe          0.943658  
         Fe3       1.0000    0.90021   0.26134   0.68501   Biso      1.000     Fe          0.937997  
         Fe4       1.0000    0.41571   0.74413   0.36857   Biso      1.000     Fe          0.926264  
         Fe5       1.0000    0.40021   0.23866   0.81499   Biso      1.000     Fe          0.944924  
         Fe6       1.0000    0.08429   0.24413   0.86857   Biso      1.000     Fe          0.9286530000000001  
         Fe7       1.0000    0.09979   0.73866   0.31499   Biso      1.000     Fe          0.9402020000000001  
         Fe8       1.0000    0.58429   0.25587   0.63143   Biso      1.000     Fe          0.9232549999999999  
         Fe9       1.0000    0.00000   0.50000   0.00000   Biso      1.000     Fe          0.9571569999999999  
         Fe10      1.0000    0.50000   0.00000   0.50000   Biso      1.000     Fe          0.961132  
         Fe11      1.0000    0.00000   0.00000   0.00000   Biso      1.000     Fe          0.9765229999999999  
         Fe12      1.0000    0.50000   0.50000   0.50000   Biso      1.000     Fe          0.9766950000000001  
         H1        1.0000    0.61120   0.55950   0.03290   Biso      1.000     H          0.032991  
         H2        1.0000    0.01620   0.47150   0.26980   Biso      1.000     H          0.039168  
         H3        1.0000    0.98380   0.52850   0.73020   Biso      1.000     H          0.038702999999999994          
         H4        1.0000    0.25660   0.13290   0.63490   Biso      1.000     H          0.031462000000000004          
         H5        1.0000    0.18380   0.98380   0.23840   Biso      1.000     H          0.032704000000000004          
         H6        1.0000    0.17860   0.69760   0.93690   Biso      1.000     H          0.035704  
         H7        1.0000    0.74340   0.86710   0.36510   Biso      1.000     H          0.031049  
         H8        1.0000    0.24340   0.63290   0.13490   Biso      1.000     H          0.031256  
         H9        1.0000    0.38880   0.44050   0.96710   Biso      1.000     H          0.032202  
         H10       1.0000    0.81620   0.01620   0.76160   Biso      1.000     H          0.032816000000000005          
         H11       1.0000    0.82140   0.30240   0.06310   Biso      1.000     H          0.035684  
         H12       1.0000    0.30430   0.00820   0.99710   Biso      1.000     H          0.039005  
         H13       1.0000    0.69570   0.99180   0.00290   Biso      1.000     H          0.03862   
         H14       1.0000    0.48380   0.97150   0.76980   Biso      1.000     H          0.038322  
         H15       1.0000    0.88880   0.05950   0.53290   Biso      1.000     H          0.032451  
         H16       1.0000    0.31620   0.48380   0.73840   Biso      1.000     H          0.032905000000000004          
         H17       1.0000    0.75660   0.36710   0.86510   Biso      1.000     H          0.031595  
         H18       1.0000    0.80430   0.49180   0.50290   Biso      1.000     H          0.03795   
         H19       1.0000    0.19570   0.50820   0.49710   Biso      1.000     H          0.038413  
         H20       1.0000    0.67860   0.80240   0.56310   Biso      1.000     H          0.036555000000000004          
         H21       1.0000    0.68380   0.51620   0.26160   Biso      1.000     H          0.033372000000000006          
         H22       1.0000    0.11120   0.94050   0.46710   Biso      1.000     H          0.03271   
         H23       1.0000    0.51620   0.02850   0.23020   Biso      1.000     H          0.039143  
         H24       1.0000    0.32140   0.19760   0.43690   Biso      1.000     H          0.035961  
         O1        1.0000    0.07400   0.18255   0.63051   Biso      1.000     O          -0.48839  
         O2        1.0000    0.96823   0.31367   0.97613   Biso      1.000     O          -0.5431020000000001           
         O3        1.0000    0.89582   0.97694   0.87371   Biso      1.000     O          -0.484621           
         O4        1.0000    0.92004   0.14959   0.80241   Biso      1.000     O          -0.546308           
         O5        1.0000    0.01017   0.54608   0.85745   Biso      1.000     O          -0.496041           
         O6        1.0000    0.26529   0.34776   0.89562   Biso      1.000     O          -0.545452           
         O7        1.0000    0.00630   0.37468   0.77891   Biso      1.000     O          -0.548539           
         O8        1.0000    0.88283   0.14888   0.03722   Biso      1.000     O          -0.49156700000000003          
         O9        1.0000    0.21129   0.47584   0.00884   Biso      1.000     O          -0.494787           
         O10       1.0000    0.16407   0.10203   0.94301   Biso      1.000     O          -0.532786           
         O11       1.0000    0.38283   0.35112   0.46278   Biso      1.000     O          -0.489336           
         O12       1.0000    0.70851   0.31230   0.74450   Biso      1.000     O          -0.539616           
         O13       1.0000    0.57400   0.31745   0.86949   Biso      1.000     O          -0.491316           
         O14       1.0000    0.50630   0.12532   0.72109   Biso      1.000     O          -0.5484319999999999           
         O15       1.0000    0.51017   0.95392   0.64255   Biso      1.000     O          -0.498032           
         O16       1.0000    0.76529   0.15224   0.60438   Biso      1.000     O          -0.5421819999999999           
         O17       1.0000    0.71129   0.02416   0.49116   Biso      1.000     O          -0.498837           
         O18       1.0000    0.42004   0.35041   0.69759   Biso      1.000     O          -0.547191           
         O19       1.0000    0.39582   0.52306   0.62629   Biso      1.000     O          -0.48286999999999997          
         O20       1.0000    0.46823   0.18633   0.52387   Biso      1.000     O          -0.5411   
         O21       1.0000    0.20851   0.18770   0.75550   Biso      1.000     O          -0.54242  
         O22       1.0000    0.39015   0.10822   0.91321   Biso      1.000     O          -0.481735           
         O23       1.0000    0.10985   0.60822   0.41321   Biso      1.000     O          -0.485408           
         O24       1.0000    0.07996   0.85041   0.19759   Biso      1.000     O          -0.547822           
         O25       1.0000    0.61717   0.64888   0.53722   Biso      1.000     O          -0.489117           
         O26       1.0000    0.66407   0.39797   0.55699   Biso      1.000     O          -0.534651           
         O27       1.0000    0.79149   0.81230   0.24450   Biso      1.000     O          -0.5402399999999999           
         O28       1.0000    0.92600   0.81745   0.36949   Biso      1.000     O          -0.489782           
         O29       1.0000    0.99370   0.62532   0.22109   Biso      1.000     O          -0.547337           
         O30       1.0000    0.98983   0.45392   0.14255   Biso      1.000     O          -0.49403800000000003          
         O31       1.0000    0.73471   0.65224   0.10438   Biso      1.000     O          -0.54405  
         O32       1.0000    0.78871   0.52416   0.99116   Biso      1.000     O          -0.49401300000000004          
         O33       1.0000    0.10418   0.02306   0.12629   Biso      1.000     O          -0.48442700000000005          
         O34       1.0000    0.03177   0.68633   0.02387   Biso      1.000     O          -0.5453359999999999           
         O35       1.0000    0.11717   0.85112   0.96278   Biso      1.000     O          -0.492112           
         O36       1.0000    0.83593   0.89797   0.05699   Biso      1.000     O          -0.533224           
         O37       1.0000    0.60985   0.89178   0.08679   Biso      1.000     O          -0.48537700000000006          
         O38       1.0000    0.29149   0.68770   0.25550   Biso      1.000     O          -0.5395449999999999           
         O39       1.0000    0.42600   0.68255   0.13051   Biso      1.000     O          -0.489175           
         O40       1.0000    0.49370   0.87468   0.27891   Biso      1.000     O          -0.546488           
         O41       1.0000    0.48983   0.04608   0.35745   Biso      1.000     O          -0.49554799999999993          
         O42       1.0000    0.23471   0.84776   0.39562   Biso      1.000     O          -0.542185           
         O43       1.0000    0.28871   0.97584   0.50884   Biso      1.000     O          -0.498155           
         O44       1.0000    0.57996   0.64959   0.30241   Biso      1.000     O          -0.54937  
         O45       1.0000    0.60418   0.47694   0.37371   Biso      1.000     O          -0.483378           
         O46       1.0000    0.53177   0.81367   0.47613   Biso      1.000     O          -0.542376           
         O47       1.0000    0.33593   0.60203   0.44301   Biso      1.000     O          -0.5342939999999999           
         O48       1.0000    0.89015   0.39178   0.58679   Biso      1.000     O          -0.481495 