
##########################################################################
#               Crystallographic Information Format file
#               Produced by PyCifRW module
#
#  This is a CIF file.  CIF has been adopted by the International
#  Union of Crystallography as the standard for data archiving and
#  transmission.
#
#  For information on this file format, follow the CIF links at
#  http://www.iucr.org
##########################################################################

data_image0

_cell_length_a                          14.6031
_cell_length_b                          14.6031
_cell_length_c                          18.804
_cell_angle_alpha                       90.6643
_cell_angle_beta                        90.6643
_cell_angle_gamma                       90.6742
_symmetry_space_group_name_H-M          'P 1'
_symmetry_int_tables_number             1
loop_
  _symmetry_equiv_pos_as_xyz
         'x, y, z' 
loop_
  _atom_site_label
  _atom_site_occupancy
  _atom_site_fract_x
  _atom_site_fract_y
  _atom_site_fract_z
  _atom_site_thermal_displace_type
  _atom_site_B_iso_or_equiv
  _atom_site_type_symbol
  _atom_site_charge
         C1        1.0000    0.16490   0.07050   0.77490   Biso      1.000     C          -0.21602  
         C2        1.0000    0.35010   0.88550   0.59170   Biso      1.000     C          -0.149859           
         C3        1.0000    0.44099   0.36249   0.93188   Biso      1.000     C          0.602303  
         C4        1.0000    0.92950   0.83510   0.72510   Biso      1.000     C          -0.21602  
         C5        1.0000    0.98030   0.45730   0.74170   Biso      1.000     C          -0.483868           
         C6        1.0000    0.11450   0.64990   0.90830   Biso      1.000     C          -0.149859           
         C7        1.0000    0.98290   0.44170   0.26580   Biso      1.000     C          0.058642  
         C8        1.0000    0.33732   0.22778   0.92000   Biso      1.000     C          -0.104927           
         C9        1.0000    0.11250   0.00590   0.73870   Biso      1.000     C          0.068373  
         C10       1.0000    0.64990   0.11450   0.40830   Biso      1.000     C          -0.149859           
         C11       1.0000    0.88550   0.35010   0.09170   Biso      1.000     C          -0.149859           
         C12       1.0000    0.74100   0.92160   0.23300   Biso      1.000     C          -0.026935           
         C13       1.0000    0.29230   0.87290   0.64490   Biso      1.000     C          0.10783   
         C14       1.0000    0.99410   0.88750   0.76130   Biso      1.000     C          0.068373  
         C15       1.0000    0.01760   0.30160   0.22080   Biso      1.000     C          0.14572   
         C16       1.0000    0.25900   0.07840   0.76700   Biso      1.000     C          -0.026935           
         C17       1.0000    0.60990   0.19010   0.44330   Biso      1.000     C          -0.096862           
         C18       1.0000    0.41881   0.63989   0.54420   Biso      1.000     C          0.610839  
         C19       1.0000    0.58349   0.72469   0.18210   Biso      1.000     C          -0.101773           
         C20       1.0000    0.07050   0.16490   0.27490   Biso      1.000     C          -0.216021           
         C21       1.0000    0.54270   0.01970   0.75830   Biso      1.000     C          -0.483868           
         C22       1.0000    0.72469   0.58349   0.68210   Biso      1.000     C          -0.101773           
         C23       1.0000    0.21820   0.73280   0.83350   Biso      1.000     C          -0.163731           
         C24       1.0000    0.77222   0.66268   0.58000   Biso      1.000     C          -0.104927           
         C25       1.0000    0.29320   0.15908   0.87870   Biso      1.000     C          -0.156283           
         C26       1.0000    0.27531   0.41651   0.31790   Biso      1.000     C          -0.101774           
         C27       1.0000    0.19010   0.60990   0.94330   Biso      1.000     C          -0.096862           
         C28       1.0000    0.80990   0.39010   0.05670   Biso      1.000     C          -0.096862           
         C29       1.0000    0.87290   0.29230   0.14490   Biso      1.000     C          0.10783   
         C30       1.0000    0.97750   0.04390   0.81420   Biso      1.000     C          -0.510832           
         C31       1.0000    0.30835   0.14867   0.80850   Biso      1.000     C          0.102347  
         C32       1.0000    0.07840   0.25900   0.26700   Biso      1.000     C          -0.026934           
         C33       1.0000    0.41651   0.27531   0.81790   Biso      1.000     C          -0.101774           
         C34       1.0000    0.84092   0.70680   0.62130   Biso      1.000     C          -0.156283           
         C35       1.0000    0.01710   0.55830   0.73420   Biso      1.000     C          0.058642  
         C36       1.0000    0.58119   0.36011   0.45580   Biso      1.000     C          0.610839  
         C37       1.0000    0.36011   0.58119   0.95580   Biso      1.000     C          0.610839  
         C38       1.0000    0.69840   0.98240   0.27920   Biso      1.000     C          0.145721  
         C39       1.0000    0.45730   0.98030   0.24170   Biso      1.000     C          -0.483868           
         C40       1.0000    0.99050   0.00950   0.25000   Biso      1.000     C          0.18295   
         C41       1.0000    0.22778   0.33732   0.42000   Biso      1.000     C          -0.10493  
         C42       1.0000    0.15630   0.94770   0.69170   Biso      1.000     C          -0.196815           
         C43       1.0000    0.05230   0.84370   0.80830   Biso      1.000     C          -0.196815           
         C44       1.0000    0.73280   0.21820   0.33350   Biso      1.000     C          -0.163731           
         C45       1.0000    0.78180   0.26720   0.16650   Biso      1.000     C          -0.163731           
         C46       1.0000    0.72065   0.37205   0.07620   Biso      1.000     C          -0.024924           
         C47       1.0000    0.28584   0.39814   0.38828   Biso      1.000     C          -0.015758           
         C48       1.0000    0.94770   0.15630   0.19170   Biso      1.000     C          -0.196817           
         C49       1.0000    0.60186   0.71416   0.11172   Biso      1.000     C          -0.015766           
         C50       1.0000    0.63989   0.41881   0.04420   Biso      1.000     C          0.610839  
         C51       1.0000    0.69270   0.29090   0.36950   Biso      1.000     C          -0.099329           
         C52       1.0000    0.25040   0.95020   0.68400   Biso      1.000     C          -0.028786           
         C53       1.0000    0.85133   0.69165   0.69150   Biso      1.000     C          0.102347  
         C54       1.0000    0.92160   0.74100   0.73300   Biso      1.000     C          -0.026935           
         C55       1.0000    0.44170   0.98290   0.76580   Biso      1.000     C          0.058642  
         C56       1.0000    0.36249   0.44099   0.43188   Biso      1.000     C          0.602303  
         C57       1.0000    0.39814   0.28584   0.88828   Biso      1.000     C          -0.015759           
         C58       1.0000    0.14867   0.30835   0.30850   Biso      1.000     C          0.102329  
         C59       1.0000    0.39010   0.80990   0.55670   Biso      1.000     C          -0.096862           
         C60       1.0000    0.02250   0.95610   0.18580   Biso      1.000     C          -0.510832           
         C61       1.0000    0.01970   0.54270   0.25830   Biso      1.000     C          -0.483868           
         C62       1.0000    0.30160   0.01760   0.72080   Biso      1.000     C          0.145721  
         C63       1.0000    0.74960   0.04980   0.31600   Biso      1.000     C          -0.028786           
         C64       1.0000    0.70680   0.84092   0.12130   Biso      1.000     C          -0.156284           
         C65       1.0000    0.63751   0.55901   0.56812   Biso      1.000     C          0.602303  
         C66       1.0000    0.55830   0.01710   0.23420   Biso      1.000     C          0.058642  
         C67       1.0000    0.70910   0.30730   0.13050   Biso      1.000     C          -0.09933  
         C68       1.0000    0.26720   0.78180   0.66650   Biso      1.000     C          -0.163731           
         C69       1.0000    0.83510   0.92950   0.22510   Biso      1.000     C          -0.21602  
         C70       1.0000    0.29090   0.69270   0.86950   Biso      1.000     C          -0.09933  
         C71       1.0000    0.98240   0.69840   0.77920   Biso      1.000     C          0.145721  
         C72       1.0000    0.04390   0.97750   0.31420   Biso      1.000     C          -0.510832           
         C73       1.0000    0.84370   0.05230   0.30830   Biso      1.000     C          -0.196817           
         C74       1.0000    0.37370   0.20670   0.77800   Biso      1.000     C          -0.140699           
         C75       1.0000    0.12710   0.70770   0.85510   Biso      1.000     C          0.10783   
         C76       1.0000    0.15908   0.29320   0.37870   Biso      1.000     C          -0.156262           
         C77       1.0000    0.20670   0.37370   0.27800   Biso      1.000     C          -0.140697           
         C78       1.0000    0.30730   0.70910   0.63050   Biso      1.000     C          -0.099329           
         C79       1.0000    0.55901   0.63751   0.06812   Biso      1.000     C          0.602303  
         C80       1.0000    0.00950   0.99050   0.75000   Biso      1.000     C          0.18295   
         C81       1.0000    0.69165   0.85133   0.19150   Biso      1.000     C          0.102347  
         C82       1.0000    0.70770   0.12710   0.35510   Biso      1.000     C          0.10783   
         C83       1.0000    0.62795   0.27935   0.42380   Biso      1.000     C          -0.024924           
         C84       1.0000    0.04980   0.74960   0.81600   Biso      1.000     C          -0.028786           
         C85       1.0000    0.00590   0.11250   0.23870   Biso      1.000     C          0.068375  
         C86       1.0000    0.66268   0.77222   0.08000   Biso      1.000     C          -0.104918           
         C87       1.0000    0.95020   0.25040   0.18400   Biso      1.000     C          -0.028786           
         C88       1.0000    0.95610   0.02250   0.68580   Biso      1.000     C          -0.510832           
         C89       1.0000    0.88750   0.99410   0.26130   Biso      1.000     C          0.068375  
         C90       1.0000    0.62630   0.79330   0.22200   Biso      1.000     C          -0.1407   
         C91       1.0000    0.79330   0.62630   0.72200   Biso      1.000     C          -0.140699           
         C92       1.0000    0.71416   0.60186   0.61172   Biso      1.000     C          -0.015759           
         C93       1.0000    0.37205   0.72065   0.57620   Biso      1.000     C          -0.024924           
         C94       1.0000    0.27935   0.62795   0.92380   Biso      1.000     C          -0.024924           
         Cu1       1.0000    0.52508   0.54806   0.44468   Biso      1.000     Cu          0.842552  
         Cu2       1.0000    0.54806   0.52508   0.94468   Biso      1.000     Cu          0.842552  
         Cu3       1.0000    0.45194   0.47492   0.05532   Biso      1.000     Cu          0.842552  
         Cu4       1.0000    0.47492   0.45194   0.55532   Biso      1.000     Cu          0.842552  
         H1        1.0000    0.00060   0.41660   0.31260   Biso      1.000     H          0.063679  
         H2        1.0000    0.77160   0.22500   0.20370   Biso      1.000     H          0.116417  
         H3        1.0000    0.96450   0.44610   0.79130   Biso      1.000     H          0.160101  
         H4        1.0000    0.12100   0.90520   0.66410   Biso      1.000     H          0.118388  
         H5        1.0000    0.03550   0.55390   0.20870   Biso      1.000     H          0.1601    
         H6        1.0000    0.45920   0.31520   0.79590   Biso      1.000     H          0.122807  
         H7        1.0000    0.23380   0.32500   0.46930   Biso      1.000     H          0.121405  
         H8        1.0000    0.61130   0.80110   0.27070   Biso      1.000     H          0.118736  
         H9        1.0000    0.58340   0.99940   0.18740   Biso      1.000     H          0.06368   
         H10       1.0000    0.97750   0.10950   0.80340   Biso      1.000     H          0.155875  
         H11       1.0000    0.13520   0.11140   0.80660   Biso      1.000     H          0.126732  
         H12       1.0000    0.94590   0.36490   0.07710   Biso      1.000     H          0.122853  
         H13       1.0000    0.03310   0.01890   0.35450   Biso      1.000     H          0.14897   
         H14       1.0000    0.88860   0.86480   0.69340   Biso      1.000     H          0.126732  
         H15       1.0000    0.58550   0.97210   0.77310   Biso      1.000     H          0.147138  
         H16       1.0000    0.97600   0.08460   0.67370   Biso      1.000     H          0.158542  
         H17       1.0000    0.41660   0.00060   0.81260   Biso      1.000     H          0.06368   
         H18       1.0000    0.02250   0.89050   0.19660   Biso      1.000     H          0.155874  
         H19       1.0000    0.86480   0.88860   0.19340   Biso      1.000     H          0.126733  
         H20       1.0000    0.82080   0.43060   0.01850   Biso      1.000     H          0.115502  
         H21       1.0000    0.17920   0.56940   0.98150   Biso      1.000     H          0.115502  
         H22       1.0000    0.09480   0.87900   0.83590   Biso      1.000     H          0.118388  
         H23       1.0000    0.76620   0.67500   0.53070   Biso      1.000     H          0.121404  
         H24       1.0000    0.96690   0.98110   0.64550   Biso      1.000     H          0.14897   
         H25       1.0000    0.88130   0.74870   0.59890   Biso      1.000     H          0.111719  
         H26       1.0000    0.56060   0.08460   0.23900   Biso      1.000     H          0.058818  
         H27       1.0000    0.08460   0.97600   0.17370   Biso      1.000     H          0.158541  
         H28       1.0000    0.44840   0.92580   0.21140   Biso      1.000     H          0.14771   
         H29       1.0000    0.08460   0.56060   0.73900   Biso      1.000     H          0.058818  
         H30       1.0000    0.35160   0.70980   0.85690   Biso      1.000     H          0.115271  
         H31       1.0000    0.68480   0.54080   0.70410   Biso      1.000     H          0.122808  
         H32       1.0000    0.91540   0.02400   0.82630   Biso      1.000     H          0.158541  
         H33       1.0000    0.99940   0.58340   0.68740   Biso      1.000     H          0.063679  
         H34       1.0000    0.36490   0.94590   0.57710   Biso      1.000     H          0.122852  
         H35       1.0000    0.80110   0.61130   0.77070   Biso      1.000     H          0.118736  
         H36       1.0000    0.19890   0.38870   0.22930   Biso      1.000     H          0.118736  
         H37       1.0000    0.89050   0.02250   0.69660   Biso      1.000     H          0.155875  
         H38       1.0000    0.38870   0.19890   0.72930   Biso      1.000     H          0.118735  
         H39       1.0000    0.01890   0.03310   0.85450   Biso      1.000     H          0.14897   
         H40       1.0000    0.05410   0.63510   0.92290   Biso      1.000     H          0.122852  
         H41       1.0000    0.22840   0.77500   0.79630   Biso      1.000     H          0.116417  
         H42       1.0000    0.41450   0.02790   0.22690   Biso      1.000     H          0.147138  
         H43       1.0000    0.92580   0.44840   0.71140   Biso      1.000     H          0.14771   
         H44       1.0000    0.11140   0.13520   0.30660   Biso      1.000     H          0.126732  
         H45       1.0000    0.22500   0.77160   0.70370   Biso      1.000     H          0.116417  
         H46       1.0000    0.70980   0.35160   0.35690   Biso      1.000     H          0.115271  
         H47       1.0000    0.10950   0.97750   0.30340   Biso      1.000     H          0.155874  
         H48       1.0000    0.74870   0.88130   0.09890   Biso      1.000     H          0.111719  
         H49       1.0000    0.25130   0.11870   0.90110   Biso      1.000     H          0.111719  
         H50       1.0000    0.43940   0.91540   0.76100   Biso      1.000     H          0.058818  
         H51       1.0000    0.44610   0.96450   0.29130   Biso      1.000     H          0.1601    
         H52       1.0000    0.07420   0.55160   0.28860   Biso      1.000     H          0.147709  
         H53       1.0000    0.54080   0.68480   0.20410   Biso      1.000     H          0.122807  
         H54       1.0000    0.02790   0.41450   0.72690   Biso      1.000     H          0.147138  
         H55       1.0000    0.02400   0.91540   0.32630   Biso      1.000     H          0.158541  
         H56       1.0000    0.43060   0.82080   0.51850   Biso      1.000     H          0.115502  
         H57       1.0000    0.90520   0.12100   0.16410   Biso      1.000     H          0.118388  
         H58       1.0000    0.97210   0.58550   0.27310   Biso      1.000     H          0.147137  
         H59       1.0000    0.11870   0.25130   0.40110   Biso      1.000     H          0.111718  
         H60       1.0000    0.63510   0.05410   0.42290   Biso      1.000     H          0.122853  
         H61       1.0000    0.31520   0.45920   0.29590   Biso      1.000     H          0.122808  
         H62       1.0000    0.64840   0.29020   0.14310   Biso      1.000     H          0.115271  
         H63       1.0000    0.32500   0.23380   0.96930   Biso      1.000     H          0.121404  
         H64       1.0000    0.87900   0.09480   0.33590   Biso      1.000     H          0.118388  
         H65       1.0000    0.29020   0.64840   0.64310   Biso      1.000     H          0.115271  
         H66       1.0000    0.77500   0.22840   0.29630   Biso      1.000     H          0.116417  
         H67       1.0000    0.56940   0.17920   0.48150   Biso      1.000     H          0.115502  
         H68       1.0000    0.98110   0.96690   0.14550   Biso      1.000     H          0.14897   
         H69       1.0000    0.91540   0.43940   0.26100   Biso      1.000     H          0.058818  
         H70       1.0000    0.55390   0.03550   0.70870   Biso      1.000     H          0.160101  
         H71       1.0000    0.55160   0.07420   0.78860   Biso      1.000     H          0.14771   
         H72       1.0000    0.67500   0.76620   0.03070   Biso      1.000     H          0.121404  
         O1        1.0000    0.41654   0.37172   0.99407   Biso      1.000     O          -0.52923  
         O2        1.0000    0.97798   0.60674   0.78746   Biso      1.000     O          -0.213389           
         O3        1.0000    0.45576   0.64956   0.48582   Biso      1.000     O          -0.521255           
         O4        1.0000    0.56747   0.41519   0.07936   Biso      1.000     O          -0.541306           
         O5        1.0000    0.37172   0.41654   0.49407   Biso      1.000     O          -0.529229           
         O6        1.0000    0.64956   0.45576   0.98582   Biso      1.000     O          -0.521256           
         O7        1.0000    0.41519   0.56747   0.57936   Biso      1.000     O          -0.541306           
         O8        1.0000    0.62828   0.58346   0.50593   Biso      1.000     O          -0.52923  
         O9        1.0000    0.41272   0.49898   0.40115   Biso      1.000     O          -0.53816  
         O10       1.0000    0.43253   0.58481   0.92064   Biso      1.000     O          -0.541306           
         O11       1.0000    0.35044   0.54424   0.01418   Biso      1.000     O          -0.521255           
         O12       1.0000    0.58481   0.43253   0.42064   Biso      1.000     O          -0.541306           
         O13       1.0000    0.58346   0.62828   0.00593   Biso      1.000     O          -0.52923  
         O14       1.0000    0.54424   0.35044   0.51418   Biso      1.000     O          -0.521255           
         O15       1.0000    0.02202   0.39326   0.21254   Biso      1.000     O          -0.213389           
         O16       1.0000    0.49898   0.41272   0.90115   Biso      1.000     O          -0.53816  
         O17       1.0000    0.50102   0.58728   0.09885   Biso      1.000     O          -0.53816  
         O18       1.0000    0.60674   0.97798   0.28746   Biso      1.000     O          -0.213389           
         O19       1.0000    0.39326   0.02202   0.71254   Biso      1.000     O          -0.213389           
         O20       1.0000    0.58728   0.50102   0.59885   Biso      1.000     O          -0.53816 