
##########################################################################
#               Crystallographic Information Format file
#               Produced by PyCifRW module
#
#  This is a CIF file.  CIF has been adopted by the International
#  Union of Crystallography as the standard for data archiving and
#  transmission.
#
#  For information on this file format, follow the CIF links at
#  http://www.iucr.org
##########################################################################

data_image0

_cell_length_a                          9.306
_cell_length_b                          11.5365
_cell_length_c                          17.348
_cell_angle_alpha                       104.95
_cell_angle_beta                        90
_cell_angle_gamma                       113.787
_symmetry_space_group_name_H-M          'P 1'
_symmetry_int_tables_number             1
loop_
  _symmetry_equiv_pos_as_xyz
         'x, y, z' 
loop_
  _atom_site_label
  _atom_site_occupancy
  _atom_site_fract_x
  _atom_site_fract_y
  _atom_site_fract_z
  _atom_site_thermal_displace_type
  _atom_site_B_iso_or_equiv
  _atom_site_type_symbol
  _atom_site_charge
         C1        1.0000    0.78175   0.07490   0.76811   Biso      1.000     C          0.49943699999999996           
         C2        1.0000    0.57350   0.73980   0.27470   Biso      1.000     C          0.07774   
         C3        1.0000    0.53580   0.79860   0.22250   Biso      1.000     C          -0.13233399999999998          
         C4        1.0000    0.64495   0.84930   0.17285   Biso      1.000     C          0.015801  
         C5        1.0000    0.61125   0.91850   0.11695   Biso      1.000     C          0.6360319999999999  
         C6        1.0000    0.05218   0.07176   0.52343   Biso      1.000     C          0.505955  
         C7        1.0000    0.81040   0.48100   0.53220   Biso      1.000     C          -0.15004  
         C8        1.0000    0.83500   0.57280   0.48920   Biso      1.000     C          0.084887  
         C9        1.0000    0.59500   0.44820   0.41630   Biso      1.000     C          0.07469500000000001           
         C10       1.0000    0.56150   0.35440   0.45730   Biso      1.000     C          -0.135717           
         C11       1.0000    0.81320   0.77780   0.23100   Biso      1.000     C          0.08050399999999999           
         C12       1.0000    0.67306   0.36812   0.51420   Biso      1.000     C          0.025741000000000003          
         C13       1.0000    0.05210   0.83700   0.67660   Biso      1.000     C          -0.152845           
         C14       1.0000    0.16630   0.73980   0.77470   Biso      1.000     C          0.078171  
         C15       1.0000    0.26280   0.79860   0.72250   Biso      1.000     C          -0.132705           
         C16       1.0000    0.20435   0.84930   0.67285   Biso      1.000     C          0.016350999999999997          
         C17       1.0000    0.30725   0.91850   0.61695   Biso      1.000     C          0.6363260000000001  
         C18       1.0000    0.70685   0.92510   0.73189   Biso      1.000     C          0.5008670000000001  
         C19       1.0000    0.98042   0.92824   0.97657   Biso      1.000     C          0.50655   
         C20       1.0000    0.32940   0.51900   0.96780   Biso      1.000     C          -0.152107           
         C21       1.0000    0.26220   0.42720   0.01080   Biso      1.000     C          0.087562  
         C22       1.0000    0.65045   0.25730   0.55077   Biso      1.000     C          0.593719  
         C23       1.0000    0.14680   0.55180   0.08370   Biso      1.000     C          0.073527  
         C24       1.0000    0.78490   0.83700   0.17660   Biso      1.000     C          -0.152385           
         C25       1.0000    0.69506   0.36812   0.01420   Biso      1.000     C          0.025814999999999998          
         C26       1.0000    0.21825   0.92510   0.23189   Biso      1.000     C          0.49943699999999996           
         C27       1.0000    0.94782   0.92824   0.47657   Biso      1.000     C          0.505954  
         C28       1.0000    0.18960   0.51900   0.46780   Biso      1.000     C          -0.15004  
         C29       1.0000    0.16500   0.42720   0.51080   Biso      1.000     C          0.084888  
         C30       1.0000    0.40500   0.55180   0.58370   Biso      1.000     C          0.07469500000000001           
         C31       1.0000    0.43850   0.64560   0.54270   Biso      1.000     C          -0.135717           
         C32       1.0000    0.32694   0.63188   0.48580   Biso      1.000     C          0.025741000000000003          
         C33       1.0000    0.34955   0.74270   0.44923   Biso      1.000     C          0.593719  
         C34       1.0000    0.94790   0.16300   0.32340   Biso      1.000     C          -0.152845           
         C35       1.0000    0.60685   0.25730   0.05077   Biso      1.000     C          0.596236  
         C36       1.0000    0.03540   0.22220   0.26900   Biso      1.000     C          0.080804  
         C37       1.0000    0.73720   0.20140   0.27750   Biso      1.000     C          -0.132708           
         C38       1.0000    0.79565   0.15070   0.32715   Biso      1.000     C          0.016350999999999997          
         C39       1.0000    0.69275   0.08150   0.38305   Biso      1.000     C          0.6363270000000001  
         C40       1.0000    0.29315   0.07490   0.26811   Biso      1.000     C          0.5008670000000001  
         C41       1.0000    0.01958   0.07176   0.02343   Biso      1.000     C          0.506549  
         C42       1.0000    0.67060   0.48100   0.03220   Biso      1.000     C          -0.152101           
         C43       1.0000    0.73780   0.57280   0.98920   Biso      1.000     C          0.087562  
         C44       1.0000    0.85320   0.44820   0.91630   Biso      1.000     C          0.073527  
         C45       1.0000    0.79290   0.35440   0.95730   Biso      1.000     C          -0.135348           
         C46       1.0000    0.83370   0.26020   0.22530   Biso      1.000     C          0.078173  
         C47       1.0000    0.20710   0.64560   0.04270   Biso      1.000     C          -0.135355           
         C48       1.0000    0.96460   0.77780   0.73100   Biso      1.000     C          0.080805  
         C49       1.0000    0.39315   0.74270   0.94923   Biso      1.000     C          0.596236  
         C50       1.0000    0.38875   0.08150   0.88305   Biso      1.000     C          0.6360319999999999  
         C51       1.0000    0.35505   0.15070   0.82715   Biso      1.000     C          0.015798  
         C52       1.0000    0.46420   0.20140   0.77750   Biso      1.000     C          -0.132333           
         C53       1.0000    0.30494   0.63188   0.98580   Biso      1.000     C          0.025824  
         C54       1.0000    0.18680   0.22220   0.76900   Biso      1.000     C          0.08050399999999999           
         C55       1.0000    0.21510   0.16300   0.82340   Biso      1.000     C          -0.152385           
         C56       1.0000    0.42650   0.26020   0.72530   Biso      1.000     C          0.07774199999999999           
         Cu1       1.0000    0.09435   0.32926   0.13574   Biso      1.000     Cu          0.336023  
         Cu2       1.0000    0.90565   0.67074   0.86426   Biso      1.000     Cu          0.336023  
         Cu3       1.0000    0.23491   0.32926   0.63574   Biso      1.000     Cu          0.33634000000000003           
         Cu4       1.0000    0.76509   0.67074   0.36426   Biso      1.000     Cu          0.336339  
         H1        1.0000    0.39030   0.50360   0.92730   Biso      1.000     H          0.130613  
         H2        1.0000    0.46370   0.28220   0.44620   Biso      1.000     H          0.131589  
         H3        1.0000    0.00820   0.86820   0.64290   Biso      1.000     H          0.135908  
         H4        1.0000    0.86120   0.76960   0.73280   Biso      1.000     H          0.099025  
         H5        1.0000    0.20540   0.70380   0.80720   Biso      1.000     H          0.093809  
         H6        1.0000    0.36500   0.80360   0.72090   Biso      1.000     H          0.138676  
         H7        1.0000    0.50160   0.29620   0.69280   Biso      1.000     H          0.094235  
         H8        1.0000    0.18150   0.71780   0.05380   Biso      1.000     H          0.13181400000000001           
         H9        1.0000    0.14000   0.13180   0.85710   Biso      1.000     H          0.13553900000000002           
         H10       1.0000    0.09160   0.23040   0.76720   Biso      1.000     H          0.099076  
         H11       1.0000    0.51840   0.43620   0.37700   Biso      1.000     H          0.094067  
         H12       1.0000    0.56140   0.19640   0.77910   Biso      1.000     H          0.138889  
         H13       1.0000    0.08220   0.56380   0.12300   Biso      1.000     H          0.09488400000000001           
         H14       1.0000    0.92820   0.64980   0.50230   Biso      1.000     H          0.103494  
         H15       1.0000    0.27840   0.35020   0.99770   Biso      1.000     H          0.10242799999999999           
         H16       1.0000    0.43860   0.80360   0.22090   Biso      1.000     H          0.138889  
         H17       1.0000    0.88670   0.49640   0.57270   Biso      1.000     H          0.130057  
         H18       1.0000    0.11330   0.50360   0.42730   Biso      1.000     H          0.130057  
         H19       1.0000    0.07180   0.35020   0.49770   Biso      1.000     H          0.103494  
         H20       1.0000    0.53630   0.71780   0.55380   Biso      1.000     H          0.131589  
         H21       1.0000    0.99180   0.13180   0.35710   Biso      1.000     H          0.135907  
         H22       1.0000    0.13880   0.23040   0.26720   Biso      1.000     H          0.099025  
         H23       1.0000    0.79460   0.29620   0.19280   Biso      1.000     H          0.093808  
         H24       1.0000    0.63500   0.19640   0.27910   Biso      1.000     H          0.138676  
         H25       1.0000    0.48160   0.56380   0.62300   Biso      1.000     H          0.094067  
         H26       1.0000    0.72160   0.64980   0.00230   Biso      1.000     H          0.10242799999999999           
         H27       1.0000    0.60970   0.49640   0.07270   Biso      1.000     H          0.130613  
         H28       1.0000    0.90840   0.76960   0.23280   Biso      1.000     H          0.099076  
         H29       1.0000    0.86000   0.86820   0.14290   Biso      1.000     H          0.13553900000000002           
         H30       1.0000    0.49840   0.70380   0.30720   Biso      1.000     H          0.094235  
         H31       1.0000    0.81850   0.28220   0.94620   Biso      1.000     H          0.13181400000000001           
         H32       1.0000    0.91780   0.43620   0.87700   Biso      1.000     H          0.09488400000000001           
         N1        1.0000    0.02087   0.73234   0.78080   Biso      1.000     N          -0.183348           
         N2        1.0000    0.26931   0.44542   0.56980   Biso      1.000     N          -0.180365           
         N3        1.0000    0.97913   0.26766   0.21920   Biso      1.000     N          -0.183348           
         N4        1.0000    0.28853   0.26766   0.71920   Biso      1.000     N          -0.183347           
         N5        1.0000    0.17611   0.44542   0.06980   Biso      1.000     N          -0.18124300000000002          
         N6        1.0000    0.82389   0.55458   0.93020   Biso      1.000     N          -0.18124200000000001          
         N7        1.0000    0.73069   0.55458   0.43020   Biso      1.000     N          -0.180365           
         N8        1.0000    0.71147   0.73234   0.28080   Biso      1.000     N          -0.183347           
         O1        1.0000    0.62448   0.15096   0.02771   Biso      1.000     O          -0.723436           
         O2        1.0000    0.13613   0.12926   0.07681   Biso      1.000     O          -0.586367           
         O3        1.0000    0.51256   0.27132   0.09922   Biso      1.000     O          -0.593379           
         O4        1.0000    0.68359   0.92158   0.05639   Biso      1.000     O          -0.649558           
         O5        1.0000    0.82358   0.11716   0.84206   Biso      1.000     O          -0.604251           
         O6        1.0000    0.50995   0.96350   0.13507   Biso      1.000     O          -0.659496           
         O7        1.0000    0.93374   0.12268   0.00439   Biso      1.000     O          -0.5917180000000001           
         O8        1.0000    0.81106   0.87732   0.49561   Biso      1.000     O          -0.591032           
         O9        1.0000    0.29358   0.11716   0.34206   Biso      1.000     O          -0.6043729999999999           
         O10       1.0000    0.54645   0.03650   0.36493   Biso      1.000     O          -0.6600560000000001           
         O11       1.0000    0.76201   0.07842   0.44361   Biso      1.000     O          -0.649053           
         O12       1.0000    0.00687   0.87074   0.42319   Biso      1.000     O          -0.586295           
         O13       1.0000    0.47352   0.84904   0.47229   Biso      1.000     O          -0.721589           
         O14       1.0000    0.79790   0.14320   0.71970   Biso      1.000     O          -0.6087090000000001           
         O15       1.0000    0.24124   0.72868   0.40078   Biso      1.000     O          -0.592337           
         O16       1.0000    0.34530   0.14320   0.21970   Biso      1.000     O          -0.6092569999999999           
         O17       1.0000    0.18894   0.12268   0.50439   Biso      1.000     O          -0.591032           
         O18       1.0000    0.17642   0.88284   0.15794   Biso      1.000     O          -0.604251           
         O19       1.0000    0.52648   0.15096   0.52771   Biso      1.000     O          -0.721589           
         O20       1.0000    0.20210   0.85680   0.28030   Biso      1.000     O          -0.6087090000000001           
         O21       1.0000    0.49005   0.03650   0.86493   Biso      1.000     O          -0.659496           
         O22       1.0000    0.31641   0.07842   0.94361   Biso      1.000     O          -0.649559           
         O23       1.0000    0.48744   0.72868   0.90078   Biso      1.000     O          -0.59338  
         O24       1.0000    0.99313   0.12926   0.57681   Biso      1.000     O          -0.586295           
         O25       1.0000    0.86387   0.87074   0.92319   Biso      1.000     O          -0.586367           
         O26       1.0000    0.37552   0.84904   0.97229   Biso      1.000     O          -0.723436           
         O27       1.0000    0.65470   0.85680   0.78030   Biso      1.000     O          -0.6092569999999999           
         O28       1.0000    0.70642   0.88284   0.65794   Biso      1.000     O          -0.6043729999999999           
         O29       1.0000    0.45355   0.96350   0.63507   Biso      1.000     O          -0.6600560000000001           
         O30       1.0000    0.23799   0.92158   0.55639   Biso      1.000     O          -0.649053           
         O31       1.0000    0.75876   0.27132   0.59922   Biso      1.000     O          -0.592338           
         O32       1.0000    0.06626   0.87732   0.99561   Biso      1.000     O          -0.5917180000000001           
         Pr1       1.0000    0.30249   0.97253   0.42686   Biso      1.000     Pr          2.088811  
         Pr2       1.0000    0.32996   0.02747   0.07314   Biso      1.000     Pr          2.090691  
         Pr3       1.0000    0.69751   0.02747   0.57314   Biso      1.000     Pr          2.088811  
         Pr4       1.0000    0.67004   0.97253   0.92686   Biso      1.000     Pr          2.090691 