
##########################################################################
#               Crystallographic Information Format file
#               Produced by PyCifRW module
#
#  This is a CIF file.  CIF has been adopted by the International
#  Union of Crystallography as the standard for data archiving and
#  transmission.
#
#  For information on this file format, follow the CIF links at
#  http://www.iucr.org
##########################################################################

data_image0

_cell_length_a                          11.4545
_cell_length_b                          11.4545
_cell_length_c                          15.0777
_cell_angle_alpha                       109.621
_cell_angle_beta                        109.621
_cell_angle_gamma                       96.5834
_symmetry_space_group_name_H-M          'P 1'
_symmetry_int_tables_number             1
loop_
  _symmetry_equiv_pos_as_xyz
         'x, y, z' 
loop_
  _atom_site_label
  _atom_site_occupancy
  _atom_site_fract_x
  _atom_site_fract_y
  _atom_site_fract_z
  _atom_site_thermal_displace_type
  _atom_site_B_iso_or_equiv
  _atom_site_type_symbol
  _atom_site_charge
         C1        1.0000    0.24970   0.90390   0.60100   Biso      1.000     C          -0.13794800000000002          
         C2        1.0000    0.30270   0.30390   0.80280   Biso      1.000     C          -0.012042           
         C3        1.0000    0.30640   0.88160   0.53030   Biso      1.000     C          -0.033832           
         C4        1.0000    0.20690   0.24830   0.09760   Biso      1.000     C          -0.035219           
         C5        1.0000    0.90390   0.24970   0.10100   Biso      1.000     C          -0.13794800000000002          
         C6        1.0000    0.24960   0.37560   0.16630   Biso      1.000     C          -0.147151           
         C7        1.0000    0.69730   0.69610   0.19720   Biso      1.000     C          -0.012042           
         C8        1.0000    0.78610   0.84610   0.86330   Biso      1.000     C          0.05581799999999999           
         C9        1.0000    0.16480   0.77000   0.08400   Biso      1.000     C          0.590577  
         C10       1.0000    0.70090   0.59870   0.73050   Biso      1.000     C          0.118922  
         C11       1.0000    0.88160   0.30640   0.03030   Biso      1.000     C          -0.033832           
         C12       1.0000    0.84610   0.78610   0.36330   Biso      1.000     C          0.05581900000000001           
         C13       1.0000    0.56120   0.09020   0.43370   Biso      1.000     C          0.042772000000000004          
         C14       1.0000    0.95620   0.32860   0.20360   Biso      1.000     C          0.119375  
         C15       1.0000    0.59870   0.70090   0.23050   Biso      1.000     C          0.118926  
         C16       1.0000    0.53960   0.01860   0.26580   Biso      1.000     C          -0.006945999999999999         
         C17       1.0000    0.32860   0.95620   0.70360   Biso      1.000     C          0.119375  
         C18       1.0000    0.29910   0.40130   0.26950   Biso      1.000     C          0.11892799999999999           
         C19       1.0000    0.09610   0.75030   0.89900   Biso      1.000     C          -0.137949           
         C20       1.0000    0.90980   0.43880   0.06630   Biso      1.000     C          0.042778  
         C21       1.0000    0.24830   0.20690   0.59760   Biso      1.000     C          -0.03522  
         C22       1.0000    0.14790   0.20750   0.98230   Biso      1.000     C          0.577621  
         C23       1.0000    0.77000   0.16480   0.58400   Biso      1.000     C          0.590577  
         C24       1.0000    0.75170   0.79310   0.40240   Biso      1.000     C          -0.035217           
         C25       1.0000    0.40130   0.29910   0.76950   Biso      1.000     C          0.118926  
         C26       1.0000    0.75040   0.62440   0.83370   Biso      1.000     C          -0.147148           
         C27       1.0000    0.30390   0.30270   0.30280   Biso      1.000     C          -0.012038           
         C28       1.0000    0.37560   0.24960   0.66630   Biso      1.000     C          -0.147145           
         C29       1.0000    0.43880   0.90980   0.56630   Biso      1.000     C          0.042778  
         C30       1.0000    0.69610   0.69730   0.69720   Biso      1.000     C          -0.012038           
         C31       1.0000    0.04380   0.67140   0.79640   Biso      1.000     C          0.119375  
         C32       1.0000    0.83520   0.23000   0.91600   Biso      1.000     C          0.5905779999999999  
         C33       1.0000    0.09020   0.56120   0.93370   Biso      1.000     C          0.042772000000000004          
         C34       1.0000    0.98140   0.46040   0.23420   Biso      1.000     C          -0.006943           
         C35       1.0000    0.79250   0.85210   0.51770   Biso      1.000     C          0.577621  
         C36       1.0000    0.01860   0.53960   0.76580   Biso      1.000     C          -0.006943           
         C37       1.0000    0.67140   0.04380   0.29640   Biso      1.000     C          0.119371  
         C38       1.0000    0.79310   0.75170   0.90240   Biso      1.000     C          -0.035214999999999996         
         C39       1.0000    0.75030   0.09610   0.39900   Biso      1.000     C          -0.137942           
         C40       1.0000    0.23000   0.83520   0.41600   Biso      1.000     C          0.5905779999999999  
         C41       1.0000    0.62440   0.75040   0.33370   Biso      1.000     C          -0.147146           
         C42       1.0000    0.85210   0.79250   0.01770   Biso      1.000     C          0.57762   
         C43       1.0000    0.15390   0.21390   0.63670   Biso      1.000     C          0.055822000000000004          
         C44       1.0000    0.20750   0.14790   0.48230   Biso      1.000     C          0.577621  
         C45       1.0000    0.69360   0.11840   0.46970   Biso      1.000     C          -0.033826           
         C46       1.0000    0.11840   0.69360   0.96970   Biso      1.000     C          -0.033825           
         C47       1.0000    0.21390   0.15390   0.13670   Biso      1.000     C          0.055821  
         C48       1.0000    0.46040   0.98140   0.73420   Biso      1.000     C          -0.006943           
         Cd1       1.0000    0.26684   0.00398   0.28620   Biso      1.000     Cd          0.9354299999999999  
         Cd2       1.0000    0.00398   0.26684   0.78620   Biso      1.000     Cd          0.9354299999999999  
         Cd3       1.0000    0.99602   0.73316   0.21380   Biso      1.000     Cd          0.9354299999999999  
         Cd4       1.0000    0.73316   0.99602   0.71380   Biso      1.000     Cd          0.9354299999999999  
         Cl1       1.0000    0.44142   0.64702   0.13980   Biso      1.000     Cl          -0.061997000000000003         
         Cl2       1.0000    0.99585   0.26719   0.29716   Biso      1.000     Cl          -0.056436           
         Cl3       1.0000    0.73281   0.00415   0.20284   Biso      1.000     Cl          -0.056436           
         Cl4       1.0000    0.55858   0.35298   0.86020   Biso      1.000     Cl          -0.061997000000000003         
         Cl5       1.0000    0.35298   0.55858   0.36020   Biso      1.000     Cl          -0.061997000000000003         
         Cl6       1.0000    0.26719   0.99585   0.79716   Biso      1.000     Cl          -0.056436           
         Cl7       1.0000    0.00415   0.73281   0.70284   Biso      1.000     Cl          -0.056436           
         Cl8       1.0000    0.64702   0.44142   0.63980   Biso      1.000     Cl          -0.061997000000000003         
         H1        1.0000    0.24520   0.44160   0.14330   Biso      1.000     H          0.138701  
         H2        1.0000    0.11620   0.83900   0.92070   Biso      1.000     H          0.14841300000000002           
         H3        1.0000    0.75480   0.55840   0.85670   Biso      1.000     H          0.138701  
         H4        1.0000    0.98430   0.48750   0.69600   Biso      1.000     H          0.111543  
         H5        1.0000    0.83900   0.11620   0.42070   Biso      1.000     H          0.148412  
         H6        1.0000    0.55840   0.75480   0.35670   Biso      1.000     H          0.138701  
         H7        1.0000    0.67780   0.66280   0.12700   Biso      1.000     H          0.109698  
         H8        1.0000    0.88380   0.16100   0.07930   Biso      1.000     H          0.14841300000000002           
         H9        1.0000    0.94860   0.00220   0.69310   Biso      1.000     H          0.44534799999999997           
         H10       1.0000    0.99780   0.05140   0.80690   Biso      1.000     H          0.44534799999999997           
         H11       1.0000    0.33720   0.32220   0.37300   Biso      1.000     H          0.109698  
         H12       1.0000    0.05140   0.99780   0.30690   Biso      1.000     H          0.44534799999999997           
         H13       1.0000    0.89490   0.47670   0.01910   Biso      1.000     H          0.105754  
         H14       1.0000    0.66280   0.67780   0.62700   Biso      1.000     H          0.109698  
         H15       1.0000    0.51250   0.01570   0.80400   Biso      1.000     H          0.111543  
         H16       1.0000    0.06840   0.18360   0.59060   Biso      1.000     H          0.102396  
         H17       1.0000    0.52330   0.10510   0.48090   Biso      1.000     H          0.105754  
         H18       1.0000    0.00220   0.94860   0.19310   Biso      1.000     H          0.44534799999999997           
         H19       1.0000    0.32220   0.33720   0.87300   Biso      1.000     H          0.109698  
         H20       1.0000    0.44160   0.24520   0.64330   Biso      1.000     H          0.138701  
         H21       1.0000    0.10510   0.52330   0.98090   Biso      1.000     H          0.105754  
         H22       1.0000    0.48750   0.98430   0.19600   Biso      1.000     H          0.111543  
         H23       1.0000    0.16100   0.88380   0.57930   Biso      1.000     H          0.14841300000000002           
         H24       1.0000    0.47670   0.89490   0.51910   Biso      1.000     H          0.105754  
         H25       1.0000    0.01570   0.51250   0.30400   Biso      1.000     H          0.111543  
         H26       1.0000    0.81640   0.93160   0.90940   Biso      1.000     H          0.102396  
         H27       1.0000    0.18360   0.06840   0.09060   Biso      1.000     H          0.102396  
         H28       1.0000    0.93160   0.81640   0.40940   Biso      1.000     H          0.102396  
         N1        1.0000    0.95800   0.51480   0.16720   Biso      1.000     N          -0.19258  
         N2        1.0000    0.18000   0.26160   0.73660   Biso      1.000     N          -0.21359499999999998          
         N3        1.0000    0.51480   0.95800   0.66720   Biso      1.000     N          -0.19258  
         N4        1.0000    0.73840   0.82000   0.76340   Biso      1.000     N          -0.21359499999999998          
         N5        1.0000    0.26160   0.18000   0.23660   Biso      1.000     N          -0.21359499999999998          
         N6        1.0000    0.82000   0.73840   0.26340   Biso      1.000     N          -0.21359499999999998          
         N7        1.0000    0.48520   0.04200   0.33280   Biso      1.000     N          -0.192579           
         N8        1.0000    0.04200   0.48520   0.83280   Biso      1.000     N          -0.192579           
         O1        1.0000    0.29469   0.14451   0.44960   Biso      1.000     O          -0.573876           
         O2        1.0000    0.85549   0.70531   0.05040   Biso      1.000     O          -0.573876           
         O3        1.0000    0.77440   0.11560   0.88080   Biso      1.000     O          -0.548773           
         O4        1.0000    0.22560   0.88440   0.11920   Biso      1.000     O          -0.548773           
         O5        1.0000    0.10680   0.08900   0.92940   Biso      1.000     O          -0.5688850000000001           
         O6        1.0000    0.08900   0.10680   0.42940   Biso      1.000     O          -0.5688850000000001           
         O7        1.0000    0.14451   0.29469   0.94960   Biso      1.000     O          -0.573876           
         O8        1.0000    0.13779   0.71181   0.13400   Biso      1.000     O          -0.584634           
         O9        1.0000    0.70531   0.85549   0.55040   Biso      1.000     O          -0.573876           
         O10       1.0000    0.05100   0.94900   0.25000   Biso      1.000     O          -0.8569469999999999           
         O11       1.0000    0.28819   0.86221   0.36600   Biso      1.000     O          -0.584634           
         O12       1.0000    0.91100   0.89320   0.57060   Biso      1.000     O          -0.5688850000000001           
         O13       1.0000    0.88440   0.22560   0.61920   Biso      1.000     O          -0.548773           
         O14       1.0000    0.89320   0.91100   0.07060   Biso      1.000     O          -0.5688850000000001           
         O15       1.0000    0.71181   0.13779   0.63400   Biso      1.000     O          -0.584634           
         O16       1.0000    0.94900   0.05100   0.75000   Biso      1.000     O          -0.8569469999999999           
         O17       1.0000    0.11560   0.77440   0.38080   Biso      1.000     O          -0.548773           
         O18       1.0000    0.86221   0.28819   0.86600   Biso      1.000     O          -0.584634 