
##########################################################################
#               Crystallographic Information Format file
#               Produced by PyCifRW module
#
#  This is a CIF file.  CIF has been adopted by the International
#  Union of Crystallography as the standard for data archiving and
#  transmission.
#
#  For information on this file format, follow the CIF links at
#  http://www.iucr.org
##########################################################################

data_image0

_cell_length_a                          8.4747
_cell_length_b                          8.9873
_cell_length_c                          8.9873
_cell_angle_alpha                       77.1537
_cell_angle_beta                        61.8695
_cell_angle_gamma                       61.8695
_symmetry_space_group_name_H-M          'P 1'
_symmetry_int_tables_number             1
loop_
  _symmetry_equiv_pos_as_xyz
         'x, y, z' 
loop_
  _atom_site_label
  _atom_site_occupancy
  _atom_site_fract_x
  _atom_site_fract_y
  _atom_site_fract_z
  _atom_site_thermal_displace_type
  _atom_site_B_iso_or_equiv
  _atom_site_type_symbol
  _atom_site_charge
         C1        1.0000    0.52300   0.72980   0.27020   Biso      1.000     C          0.428547  
         C2        1.0000    0.58220   0.22880   0.22880   Biso      1.000     C          0.534529  
         C3        1.0000    0.36430   0.27070   0.27070   Biso      1.000     C          0.448874  
         C4        1.0000    0.03980   0.77120   0.77120   Biso      1.000     C          0.534736  
         C5        1.0000    0.90570   0.72930   0.72930   Biso      1.000     C          0.449075  
         C6        1.0000    0.34600   0.77130   0.22870   Biso      1.000     C          0.550815  
         C7        1.0000    0.34600   0.22870   0.77130   Biso      1.000     C          0.550815  
         C8        1.0000    0.52300   0.27020   0.72980   Biso      1.000     C          0.428546  
         Cd1       1.0000    0.57664   0.00000   0.00000   Biso      1.000     Cd          0.983558  
         Cd2       1.0000    0.07520   0.00000   0.00000   Biso      1.000     Cd          1.130746  
         O1        1.0000    0.64800   0.80330   0.19670   Biso      1.000     O          -0.481409           
         O2        1.0000    0.25400   0.68640   0.31360   Biso      1.000     O          -0.575949           
         O3        1.0000    0.53840   0.61360   0.38640   Biso      1.000     O          -0.492699           
         O4        1.0000    0.23440   0.38480   0.38480   Biso      1.000     O          -0.499329           
         O5        1.0000    0.64800   0.19670   0.80330   Biso      1.000     O          -0.481409           
         O6        1.0000    0.32100   0.87850   0.12150   Biso      1.000     O          -0.494647           
         O7        1.0000    0.32100   0.12150   0.87850   Biso      1.000     O          -0.494647           
         O8        1.0000    0.22050   0.68610   0.68610   Biso      1.000     O          -0.578947           
         O9        1.0000    0.53840   0.38640   0.61360   Biso      1.000     O          -0.492699           
         O10       1.0000    0.71220   0.80180   0.80180   Biso      1.000     O          -0.475012           
         O11       1.0000    0.96480   0.87820   0.87820   Biso      1.000     O          -0.49166  
         O12       1.0000    0.59270   0.31390   0.31390   Biso      1.000     O          -0.579079           
         O13       1.0000    0.25400   0.31360   0.68640   Biso      1.000     O          -0.575949           
         O14       1.0000    0.31580   0.19820   0.19820   Biso      1.000     O          -0.475508           
         O15       1.0000    0.72120   0.12180   0.12180   Biso      1.000     O          -0.491824           
         O16       1.0000    0.00400   0.61520   0.61520   Biso      1.000     O          -0.501075           
         Zr1       1.0000    0.32770   0.50000   0.50000   Biso      1.000     Zr          2.141603 