
##########################################################################
#               Crystallographic Information Format file
#               Produced by PyCifRW module
#
#  This is a CIF file.  CIF has been adopted by the International
#  Union of Crystallography as the standard for data archiving and
#  transmission.
#
#  For information on this file format, follow the CIF links at
#  http://www.iucr.org
##########################################################################

data_image0

_cell_length_a                          7.481
_cell_length_b                          8.336
_cell_length_c                          10.42
_cell_angle_alpha                       93.56
_cell_angle_beta                        105.39
_cell_angle_gamma                       109.35
_symmetry_space_group_name_H-M          'P 1'
_symmetry_int_tables_number             1
loop_
  _symmetry_equiv_pos_as_xyz
         'x, y, z' 
loop_
  _atom_site_label
  _atom_site_occupancy
  _atom_site_fract_x
  _atom_site_fract_y
  _atom_site_fract_z
  _atom_site_thermal_displace_type
  _atom_site_B_iso_or_equiv
  _atom_site_type_symbol
  _atom_site_charge
         Ba1       1.0000    0.31265   0.55941   0.62745   Biso      1.000     Ba          1.5211290000000002  
         Ba2       1.0000    0.68735   0.44059   0.37255   Biso      1.000     Ba          1.521128  
         C1        1.0000    0.87910   0.61110   0.15100   Biso      1.000     C          0.587149  
         C2        1.0000    0.38230   0.11080   0.05870   Biso      1.000     C          0.620468  
         C3        1.0000    0.87590   0.66090   0.66980   Biso      1.000     C          0.633576  
         C4        1.0000    0.87690   0.64520   0.91120   Biso      1.000     C          -0.123079           
         C5        1.0000    0.96330   0.70460   0.04900   Biso      1.000     C          -0.009868           
         C6        1.0000    0.13010   0.85580   0.09430   Biso      1.000     C          -0.114552           
         C7        1.0000    0.21150   0.94680   0.00260   Biso      1.000     C          -0.047688           
         C8        1.0000    0.12950   0.88260   0.86480   Biso      1.000     C          -0.119674           
         C9        1.0000    0.12090   0.38890   0.84900   Biso      1.000     C          0.587149  
         C10       1.0000    0.61770   0.88920   0.94130   Biso      1.000     C          0.620468  
         C11       1.0000    0.12410   0.33910   0.33020   Biso      1.000     C          0.633576  
         C12       1.0000    0.12310   0.35480   0.08880   Biso      1.000     C          -0.123079           
         C13       1.0000    0.96240   0.73110   0.81930   Biso      1.000     C          -0.019903999999999998         
         C14       1.0000    0.86990   0.14420   0.90570   Biso      1.000     C          -0.114553           
         C15       1.0000    0.78850   0.05320   0.99740   Biso      1.000     C          -0.047688           
         C16       1.0000    0.87050   0.11740   0.13520   Biso      1.000     C          -0.119674           
         C17       1.0000    0.03760   0.26890   0.18070   Biso      1.000     C          -0.019903999999999998         
         C18       1.0000    0.03670   0.29540   0.95100   Biso      1.000     C          -0.009867           
         H1        1.0000    0.81210   0.10350   0.81360   Biso      1.000     H          0.128076  
         H2        1.0000    0.23850   0.45230   0.11990   Biso      1.000     H          0.121939  
         H3        1.0000    0.46890   0.70660   0.99190   Biso      1.000     H          0.426858  
         H4        1.0000    0.81410   0.05960   0.19650   Biso      1.000     H          0.130299  
         H5        1.0000    0.18790   0.89650   0.18640   Biso      1.000     H          0.128076  
         H6        1.0000    0.76150   0.54770   0.88010   Biso      1.000     H          0.121939  
         H7        1.0000    0.53110   0.29340   0.00810   Biso      1.000     H          0.426858  
         H8        1.0000    0.18590   0.94040   0.80350   Biso      1.000     H          0.130298  
         O1        1.0000    0.97620   0.65980   0.27280   Biso      1.000     O          -0.6311439999999999           
         O2        1.0000    0.31100   0.40720   0.37700   Biso      1.000     O          -0.701191           
         O3        1.0000    0.00740   0.32590   0.39940   Biso      1.000     O          -0.657044           
         O4        1.0000    0.55840   0.79800   0.03090   Biso      1.000     O          -0.516494           
         O5        1.0000    0.53790   0.84290   0.81930   Biso      1.000     O          -0.574231           
         O6        1.0000    0.02380   0.34020   0.72720   Biso      1.000     O          -0.6311439999999999           
         O7        1.0000    0.28670   0.51110   0.89010   Biso      1.000     O          -0.654626           
         O8        1.0000    0.68900   0.59280   0.62300   Biso      1.000     O          -0.701191           
         O9        1.0000    0.99260   0.67410   0.60060   Biso      1.000     O          -0.657044           
         O10       1.0000    0.44160   0.20200   0.96910   Biso      1.000     O          -0.516494           
         O11       1.0000    0.46210   0.15710   0.18070   Biso      1.000     O          -0.574231           
         O12       1.0000    0.71330   0.48890   0.10990   Biso      1.000     O          -0.654626 