
##########################################################################
#               Crystallographic Information Format file
#               Produced by PyCifRW module
#
#  This is a CIF file.  CIF has been adopted by the International
#  Union of Crystallography as the standard for data archiving and
#  transmission.
#
#  For information on this file format, follow the CIF links at
#  http://www.iucr.org
##########################################################################

data_image0

_cell_length_a                          9.1625
_cell_length_b                          11.089
_cell_length_c                          12.9065
_cell_angle_alpha                       115.371
_cell_angle_beta                        96.593
_cell_angle_gamma                       95.177
_symmetry_space_group_name_H-M          'P 1'
_symmetry_int_tables_number             1
loop_
  _symmetry_equiv_pos_as_xyz
         'x, y, z' 
loop_
  _atom_site_label
  _atom_site_occupancy
  _atom_site_fract_x
  _atom_site_fract_y
  _atom_site_fract_z
  _atom_site_thermal_displace_type
  _atom_site_B_iso_or_equiv
  _atom_site_type_symbol
  _atom_site_charge
         Ba1       1.0000    0.37211   0.37248   0.81297   Biso      1.000     Ba          1.512084  
         Ba2       1.0000    0.12786   0.62750   0.68713   Biso      1.000     Ba          1.51251   
         Ba3       1.0000    0.87214   0.37250   0.31287   Biso      1.000     Ba          1.512509  
         Ba4       1.0000    0.62789   0.62752   0.18703   Biso      1.000     Ba          1.512082  
         C1        1.0000    0.69520   0.90660   0.84270   Biso      1.000     C          -0.101683           
         C2        1.0000    0.46460   0.94030   0.35660   Biso      1.000     C          0.609673  
         C3        1.0000    0.41770   0.84860   0.80880   Biso      1.000     C          0.592849  
         C4        1.0000    0.32700   0.99690   0.38130   Biso      1.000     C          -0.046252           
         C5        1.0000    0.30480   0.09340   0.15730   Biso      1.000     C          -0.101683           
         C6        1.0000    0.03270   0.05770   0.14260   Biso      1.000     C          0.611785  
         C7        1.0000    0.17250   0.00210   0.11850   Biso      1.000     C          -0.050129           
         C8        1.0000    0.31270   0.81920   0.04350   Biso      1.000     C          -0.025796           
         C9        1.0000    0.68730   0.18080   0.95650   Biso      1.000     C          -0.025797           
         C10       1.0000    0.55820   0.95180   0.85590   Biso      1.000     C          -0.020584           
         C11       1.0000    0.55380   0.08920   0.91060   Biso      1.000     C          -0.118018           
         C12       1.0000    0.82750   0.99790   0.88150   Biso      1.000     C          -0.050129           
         C13       1.0000    0.06170   0.95070   0.35530   Biso      1.000     C          -0.018695           
         C14       1.0000    0.17630   0.86400   0.05790   Biso      1.000     C          -0.117332           
         C15       1.0000    0.58230   0.15140   0.19120   Biso      1.000     C          0.59285   
         C16       1.0000    0.19670   0.90570   0.33870   Biso      1.000     C          -0.102344           
         C17       1.0000    0.67780   0.86540   0.55910   Biso      1.000     C          -0.10883  
         C18       1.0000    0.68430   0.33080   0.02250   Biso      1.000     C          0.637677  
         C19       1.0000    0.18180   0.32920   0.52190   Biso      1.000     C          0.634813  
         C20       1.0000    0.67300   0.00310   0.61870   Biso      1.000     C          -0.046251           
         C21       1.0000    0.93830   0.04930   0.64470   Biso      1.000     C          -0.018695           
         C22       1.0000    0.81820   0.67080   0.47810   Biso      1.000     C          0.634813  
         C23       1.0000    0.05640   0.08830   0.40990   Biso      1.000     C          -0.117681           
         C24       1.0000    0.81140   0.82000   0.54460   Biso      1.000     C          -0.02133  
         C25       1.0000    0.18860   0.18000   0.45540   Biso      1.000     C          -0.021337           
         C26       1.0000    0.31570   0.66920   0.97750   Biso      1.000     C          0.637677  
         C27       1.0000    0.91950   0.84910   0.30860   Biso      1.000     C          0.590714  
         C28       1.0000    0.32220   0.13460   0.44090   Biso      1.000     C          -0.108821           
         C29       1.0000    0.44620   0.91080   0.08940   Biso      1.000     C          -0.118018           
         C30       1.0000    0.08050   0.15090   0.69140   Biso      1.000     C          0.590715  
         C31       1.0000    0.82370   0.13600   0.94210   Biso      1.000     C          -0.117332           
         C32       1.0000    0.53540   0.05970   0.64340   Biso      1.000     C          0.609673  
         C33       1.0000    0.96730   0.94230   0.85740   Biso      1.000     C          0.611785  
         C34       1.0000    0.94360   0.91170   0.59010   Biso      1.000     C          -0.117681           
         C35       1.0000    0.44180   0.04820   0.14410   Biso      1.000     C          -0.020584           
         C36       1.0000    0.80330   0.09430   0.66130   Biso      1.000     C          -0.102344           
         H1        1.0000    0.08520   0.80120   0.02590   Biso      1.000     H          0.129192  
         H2        1.0000    0.58780   0.80120   0.52810   Biso      1.000     H          0.125019  
         H3        1.0000    0.91480   0.19880   0.97410   Biso      1.000     H          0.129192  
         H4        1.0000    0.46010   0.12190   0.91720   Biso      1.000     H          0.121277  
         H5        1.0000    0.41220   0.19880   0.47190   Biso      1.000     H          0.125018  
         H6        1.0000    0.83270   0.02100   0.13920   Biso      1.000     H          0.391647  
         H7        1.0000    0.16730   0.97900   0.86080   Biso      1.000     H          0.391647  
         H8        1.0000    0.80060   0.18960   0.69960   Biso      1.000     H          0.126079  
         H9        1.0000    0.96290   0.12120   0.41700   Biso      1.000     H          0.120129  
         H10       1.0000    0.33420   0.01680   0.63960   Biso      1.000     H          0.394892  
         H11       1.0000    0.53990   0.87810   0.08280   Biso      1.000     H          0.121277  
         H12       1.0000    0.30120   0.18830   0.19790   Biso      1.000     H          0.12469   
         H13       1.0000    0.66580   0.98320   0.36040   Biso      1.000     H          0.394892  
         H14       1.0000    0.19940   0.81040   0.30040   Biso      1.000     H          0.126079  
         H15       1.0000    0.03710   0.87880   0.58300   Biso      1.000     H          0.120129  
         H16       1.0000    0.69880   0.81170   0.80210   Biso      1.000     H          0.12469   
         O1        1.0000    0.28230   0.39920   0.60930   Biso      1.000     O          -0.663964           
         O2        1.0000    0.29460   0.88990   0.80670   Biso      1.000     O          -0.648384           
         O3        1.0000    0.08700   0.03000   0.88560   Biso      1.000     O          -0.473868           
         O4        1.0000    0.93140   0.72680   0.27140   Biso      1.000     O          -0.629708           
         O5        1.0000    0.06860   0.27320   0.72860   Biso      1.000     O          -0.629708           
         O6        1.0000    0.07870   0.37660   0.48680   Biso      1.000     O          -0.691919           
         O7        1.0000    0.96960   0.82020   0.81300   Biso      1.000     O          -0.588612           
         O8        1.0000    0.21720   0.60090   0.89060   Biso      1.000     O          -0.656085           
         O9        1.0000    0.53240   0.18080   0.68800   Biso      1.000     O          -0.569624           
         O10       1.0000    0.57970   0.37670   0.98710   Biso      1.000     O          -0.699498           
         O11       1.0000    0.79620   0.89000   0.30810   Biso      1.000     O          -0.647752           
         O12       1.0000    0.70540   0.11010   0.19330   Biso      1.000     O          -0.648384           
         O13       1.0000    0.41260   0.96900   0.61410   Biso      1.000     O          -0.495817           
         O14       1.0000    0.42030   0.62330   0.01290   Biso      1.000     O          -0.699498           
         O15       1.0000    0.92130   0.62340   0.51320   Biso      1.000     O          -0.691919           
         O16       1.0000    0.03040   0.17980   0.18700   Biso      1.000     O          -0.588612           
         O17       1.0000    0.46760   0.81920   0.31200   Biso      1.000     O          -0.569624           
         O18       1.0000    0.56870   0.27290   0.22750   Biso      1.000     O          -0.621126           
         O19       1.0000    0.43130   0.72710   0.77250   Biso      1.000     O          -0.621126           
         O20       1.0000    0.91300   0.97000   0.11440   Biso      1.000     O          -0.473869           
         O21       1.0000    0.58740   0.03100   0.38590   Biso      1.000     O          -0.495817           
         O22       1.0000    0.78280   0.39910   0.10940   Biso      1.000     O          -0.656084           
         O23       1.0000    0.20380   0.11000   0.69190   Biso      1.000     O          -0.647752           
         O24       1.0000    0.71770   0.60080   0.39070   Biso      1.000     O          -0.663963 