
##########################################################################
#               Crystallographic Information Format file
#               Produced by PyCifRW module
#
#  This is a CIF file.  CIF has been adopted by the International
#  Union of Crystallography as the standard for data archiving and
#  transmission.
#
#  For information on this file format, follow the CIF links at
#  http://www.iucr.org
##########################################################################

data_image0

_cell_length_a                          7.266
_cell_length_b                          8.368
_cell_length_c                          10.163
_cell_angle_alpha                       94.81
_cell_angle_beta                        105.18
_cell_angle_gamma                       109.18
_symmetry_space_group_name_H-M          'P 1'
_symmetry_int_tables_number             1
loop_
  _symmetry_equiv_pos_as_xyz
         'x, y, z' 
loop_
  _atom_site_label
  _atom_site_occupancy
  _atom_site_fract_x
  _atom_site_fract_y
  _atom_site_fract_z
  _atom_site_thermal_displace_type
  _atom_site_B_iso_or_equiv
  _atom_site_type_symbol
  _atom_site_charge
         C1        1.0000    0.96330   0.72720   0.82130   Biso      1.000     C          -0.016834           
         C2        1.0000    0.87940   0.61810   0.16340   Biso      1.000     C          0.573357  
         C3        1.0000    0.38730   0.11860   0.06630   Biso      1.000     C          0.634583  
         C4        1.0000    0.87400   0.65290   0.66830   Biso      1.000     C          0.637325  
         C5        1.0000    0.88060   0.64520   0.91740   Biso      1.000     C          -0.129239           
         C6        1.0000    0.96550   0.70790   0.05910   Biso      1.000     C          -0.011267           
         C7        1.0000    0.13680   0.86310   0.10330   Biso      1.000     C          -0.103916           
         C8        1.0000    0.21530   0.95170   0.00930   Biso      1.000     C          -0.048407           
         C9        1.0000    0.13340   0.88190   0.86810   Biso      1.000     C          -0.109001           
         C10       1.0000    0.12060   0.38190   0.83660   Biso      1.000     C          0.573358  
         C11       1.0000    0.61270   0.88140   0.93370   Biso      1.000     C          0.634583  
         C12       1.0000    0.12600   0.34710   0.33170   Biso      1.000     C          0.637324  
         C13       1.0000    0.03450   0.29210   0.94090   Biso      1.000     C          -0.011268           
         C14       1.0000    0.11940   0.35480   0.08260   Biso      1.000     C          -0.129238           
         C15       1.0000    0.78470   0.04830   0.99070   Biso      1.000     C          -0.04841  
         C16       1.0000    0.86660   0.11810   0.13190   Biso      1.000     C          -0.109001           
         C17       1.0000    0.03670   0.27280   0.17870   Biso      1.000     C          -0.016833           
         C18       1.0000    0.86320   0.13690   0.89670   Biso      1.000     C          -0.103914           
         H1        1.0000    0.80880   0.06250   0.19490   Biso      1.000     H          0.127271  
         H2        1.0000    0.80150   0.09310   0.80220   Biso      1.000     H          0.124066  
         H3        1.0000    0.23540   0.45500   0.11440   Biso      1.000     H          0.11945   
         H4        1.0000    0.54200   0.69200   0.00500   Biso      1.000     H          0.434902  
         H5        1.0000    0.19120   0.93750   0.80510   Biso      1.000     H          0.127271  
         H6        1.0000    0.76460   0.54500   0.88560   Biso      1.000     H          0.11945   
         H7        1.0000    0.45800   0.30800   0.99500   Biso      1.000     H          0.434902  
         H8        1.0000    0.19850   0.90690   0.19780   Biso      1.000     H          0.124066  
         O1        1.0000    0.44560   0.20800   0.97300   Biso      1.000     O          -0.550306           
         O2        1.0000    0.29420   0.50720   0.87900   Biso      1.000     O          -0.670787           
         O3        1.0000    0.46780   0.17230   0.19080   Biso      1.000     O          -0.556038           
         O4        1.0000    0.99590   0.65710   0.59960   Biso      1.000     O          -0.65909  
         O5        1.0000    0.68350   0.59080   0.62150   Biso      1.000     O          -0.693784           
         O6        1.0000    0.02270   0.33380   0.71160   Biso      1.000     O          -0.622388           
         O7        1.0000    0.70580   0.49280   0.12100   Biso      1.000     O          -0.670787           
         O8        1.0000    0.55440   0.79200   0.02700   Biso      1.000     O          -0.550306           
         O9        1.0000    0.00410   0.34290   0.40040   Biso      1.000     O          -0.65909  
         O10       1.0000    0.31650   0.40920   0.37850   Biso      1.000     O          -0.693784           
         O11       1.0000    0.97730   0.66620   0.28840   Biso      1.000     O          -0.622387           
         O12       1.0000    0.53220   0.82770   0.80920   Biso      1.000     O          -0.556038           
         Sr1       1.0000    0.68960   0.44765   0.37518   Biso      1.000     Sr          1.520104  
         Sr2       1.0000    0.31040   0.55235   0.62482   Biso      1.000     Sr          1.520103 