
##########################################################################
#               Crystallographic Information Format file
#               Produced by PyCifRW module
#
#  This is a CIF file.  CIF has been adopted by the International
#  Union of Crystallography as the standard for data archiving and
#  transmission.
#
#  For information on this file format, follow the CIF links at
#  http://www.iucr.org
##########################################################################

data_image0

_cell_length_a                          7.8463
_cell_length_b                          18.3139
_cell_length_c                          19.376
_cell_angle_alpha                       90
_cell_angle_beta                        90
_cell_angle_gamma                       90
_symmetry_space_group_name_H-M          'P 1'
_symmetry_int_tables_number             1
loop_
  _symmetry_equiv_pos_as_xyz
         'x, y, z' 
loop_
  _atom_site_label
  _atom_site_occupancy
  _atom_site_fract_x
  _atom_site_fract_y
  _atom_site_fract_z
  _atom_site_thermal_displace_type
  _atom_site_B_iso_or_equiv
  _atom_site_type_symbol
  _atom_site_charge
         C1        1.0000    0.61050   0.65720   0.74510   Biso      1.000     C          -0.552431           
         C2        1.0000    0.06300   0.15310   0.98539   Biso      1.000     C          -0.095178           
         C3        1.0000    0.86170   0.41014   0.05166   Biso      1.000     C          -0.559486           
         C4        1.0000    0.76290   0.37945   0.99244   Biso      1.000     C          0.369252  
         C5        1.0000    0.68220   0.31138   0.90600   Biso      1.000     C          0.353388  
         C6        1.0000    0.67940   0.25289   0.85230   Biso      1.000     C          -0.54681  
         C7        1.0000    0.72660   0.48278   0.39765   Biso      1.000     C          0.561991  
         C8        1.0000    0.87350   0.47662   0.34699   Biso      1.000     C          -0.018676           
         C9        1.0000    0.83790   0.44940   0.28234   Biso      1.000     C          -0.088355           
         C10       1.0000    0.96790   0.44320   0.23363   Biso      1.000     C          -0.190794           
         C11       1.0000    0.13040   0.46612   0.24959   Biso      1.000     C          0.192563  
         C12       1.0000    0.16930   0.49221   0.31451   Biso      1.000     C          -0.16508  
         C13       1.0000    0.03820   0.49729   0.36340   Biso      1.000     C          -0.081901           
         C14       1.0000    0.18530   0.56594   0.12233   Biso      1.000     C          -0.55313  
         C15       1.0000    0.28090   0.49791   0.13843   Biso      1.000     C          0.369483  
         C16       1.0000    0.37160   0.39993   0.19155   Biso      1.000     C          0.359582  
         C17       1.0000    0.38950   0.34280   0.24510   Biso      1.000     C          -0.552431           
         C18       1.0000    0.37730   0.36943   0.50110   Biso      1.000     C          0.573048  
         C19       1.0000    0.92500   0.19926   0.97537   Biso      1.000     C          -0.179096           
         C20       1.0000    0.95320   0.27311   0.96567   Biso      1.000     C          0.185007  
         C21       1.0000    0.11740   0.30198   0.96632   Biso      1.000     C          -0.183472           
         C22       1.0000    0.25350   0.25554   0.97862   Biso      1.000     C          -0.083424           
         C23       1.0000    0.04680   0.72689   0.46567   Biso      1.000     C          0.185004  
         C24       1.0000    0.07500   0.80074   0.47537   Biso      1.000     C          -0.179095           
         C25       1.0000    0.93700   0.84690   0.48539   Biso      1.000     C          -0.095176           
         C26       1.0000    0.13830   0.58986   0.55166   Biso      1.000     C          -0.559486           
         C27       1.0000    0.23710   0.62055   0.49244   Biso      1.000     C          0.369253  
         C28       1.0000    0.31780   0.68862   0.40600   Biso      1.000     C          0.353388  
         C29       1.0000    0.32060   0.74711   0.35230   Biso      1.000     C          -0.54681  
         C30       1.0000    0.27340   0.51722   0.89765   Biso      1.000     C          0.561991  
         C31       1.0000    0.22800   0.31900   0.48783   Biso      1.000     C          -0.024018           
         C32       1.0000    0.12650   0.52338   0.84699   Biso      1.000     C          -0.018676           
         C33       1.0000    0.03210   0.55680   0.73363   Biso      1.000     C          -0.190794           
         C34       1.0000    0.86960   0.53388   0.74959   Biso      1.000     C          0.192563  
         C35       1.0000    0.96180   0.50271   0.86340   Biso      1.000     C          -0.0819   
         C36       1.0000    0.81470   0.43406   0.62233   Biso      1.000     C          -0.55313  
         C37       1.0000    0.71910   0.50209   0.63843   Biso      1.000     C          0.369484  
         C38       1.0000    0.62840   0.60007   0.69155   Biso      1.000     C          0.359582  
         C39       1.0000    0.37730   0.13057   0.00110   Biso      1.000     C          0.573048  
         C40       1.0000    0.22800   0.18100   0.98783   Biso      1.000     C          -0.024018           
         C41       1.0000    0.16210   0.55060   0.78234   Biso      1.000     C          -0.088355           
         C42       1.0000    0.88260   0.69802   0.46632   Biso      1.000     C          -0.183472           
         C43       1.0000    0.25350   0.24446   0.47862   Biso      1.000     C          -0.083427           
         C44       1.0000    0.95320   0.22689   0.46567   Biso      1.000     C          0.185004  
         C45       1.0000    0.07500   0.69926   0.97537   Biso      1.000     C          -0.179098           
         C46       1.0000    0.93700   0.65310   0.98539   Biso      1.000     C          -0.095176           
         C47       1.0000    0.13830   0.91014   0.05166   Biso      1.000     C          -0.559486           
         C48       1.0000    0.23710   0.87945   0.99244   Biso      1.000     C          0.369253  
         C49       1.0000    0.31780   0.81138   0.90600   Biso      1.000     C          0.353387  
         C50       1.0000    0.32060   0.75289   0.85230   Biso      1.000     C          -0.54681  
         C51       1.0000    0.27340   0.98278   0.39765   Biso      1.000     C          0.561991  
         C52       1.0000    0.12650   0.97662   0.34699   Biso      1.000     C          -0.018676           
         C53       1.0000    0.16210   0.94940   0.28234   Biso      1.000     C          -0.088355           
         C54       1.0000    0.03210   0.94320   0.23363   Biso      1.000     C          -0.190794           
         C55       1.0000    0.86960   0.96612   0.24959   Biso      1.000     C          0.192563  
         C56       1.0000    0.83070   0.99221   0.31451   Biso      1.000     C          -0.16508  
         C57       1.0000    0.96180   0.99729   0.36340   Biso      1.000     C          -0.081901           
         C58       1.0000    0.81470   0.06594   0.12233   Biso      1.000     C          -0.55313  
         C59       1.0000    0.71910   0.99791   0.13843   Biso      1.000     C          0.369484  
         C60       1.0000    0.62840   0.89993   0.19155   Biso      1.000     C          0.359582  
         C61       1.0000    0.61050   0.84280   0.24510   Biso      1.000     C          -0.552432           
         C62       1.0000    0.04680   0.77311   0.96567   Biso      1.000     C          0.185007  
         C63       1.0000    0.88260   0.80198   0.96632   Biso      1.000     C          -0.183472           
         C64       1.0000    0.74650   0.75554   0.97862   Biso      1.000     C          -0.083424           
         C65       1.0000    0.77200   0.68100   0.98783   Biso      1.000     C          -0.024018           
         C66       1.0000    0.92500   0.30074   0.47537   Biso      1.000     C          -0.179095           
         C67       1.0000    0.06300   0.34690   0.48539   Biso      1.000     C          -0.095176           
         C68       1.0000    0.86170   0.08986   0.55166   Biso      1.000     C          -0.559486           
         C69       1.0000    0.76290   0.12055   0.49244   Biso      1.000     C          0.369253  
         C70       1.0000    0.68220   0.18862   0.40600   Biso      1.000     C          0.353387  
         C71       1.0000    0.67940   0.24711   0.35230   Biso      1.000     C          -0.54681  
         C72       1.0000    0.72660   0.01722   0.89765   Biso      1.000     C          0.561991  
         C73       1.0000    0.87350   0.02338   0.84699   Biso      1.000     C          -0.018676           
         C74       1.0000    0.11740   0.19802   0.46632   Biso      1.000     C          -0.183468           
         C75       1.0000    0.83790   0.05060   0.78234   Biso      1.000     C          -0.088356           
         C76       1.0000    0.13040   0.03388   0.74959   Biso      1.000     C          0.19256   
         C77       1.0000    0.16930   0.00779   0.81451   Biso      1.000     C          -0.16508  
         C78       1.0000    0.03820   0.00271   0.86340   Biso      1.000     C          -0.081901           
         C79       1.0000    0.18530   0.93406   0.62233   Biso      1.000     C          -0.55313  
         C80       1.0000    0.28090   0.00209   0.63843   Biso      1.000     C          0.369484  
         C81       1.0000    0.37160   0.10007   0.69155   Biso      1.000     C          0.359582  
         C82       1.0000    0.38950   0.15720   0.74510   Biso      1.000     C          -0.552431           
         C83       1.0000    0.62270   0.63057   0.00110   Biso      1.000     C          0.573048  
         C84       1.0000    0.96790   0.05680   0.73363   Biso      1.000     C          -0.190791           
         C85       1.0000    0.74650   0.74446   0.47862   Biso      1.000     C          -0.083424           
         C86       1.0000    0.83070   0.50779   0.81451   Biso      1.000     C          -0.16508  
         C87       1.0000    0.62270   0.86943   0.50110   Biso      1.000     C          0.573048  
         C88       1.0000    0.77200   0.81900   0.48783   Biso      1.000     C          -0.024018           
         H1        1.0000    0.81340   0.18050   0.97520   Biso      1.000     H          0.139713  
         H2        1.0000    0.04510   0.10260   0.99060   Biso      1.000     H          0.114322  
         H3        1.0000    0.95630   0.43880   0.03420   Biso      1.000     H          0.185999  
         H4        1.0000    0.78790   0.44100   0.07930   Biso      1.000     H          0.185024  
         H5        1.0000    0.64080   0.20750   0.87280   Biso      1.000     H          0.187908  
         H6        1.0000    0.79330   0.24630   0.83370   Biso      1.000     H          0.173915  
         H7        1.0000    0.60250   0.26690   0.81540   Biso      1.000     H          0.183303  
         H8        1.0000    0.72630   0.43490   0.27110   Biso      1.000     H          0.117775  
         H9        1.0000    0.94460   0.42350   0.18990   Biso      1.000     H          0.124507  
         H10       1.0000    0.28120   0.50630   0.32570   Biso      1.000     H          0.141498  
         H11       1.0000    0.06250   0.51500   0.40790   Biso      1.000     H          0.113631  
         H12       1.0000    0.24640   0.59360   0.08750   Biso      1.000     H          0.195073  
         H13       1.0000    0.17400   0.59510   0.16380   Biso      1.000     H          0.183186  
         H14       1.0000    0.07290   0.55340   0.10510   Biso      1.000     H          0.186774  
         H15       1.0000    0.47210   0.30670   0.23010   Biso      1.000     H          0.187053  
         H16       1.0000    0.28020   0.31930   0.25250   Biso      1.000     H          0.182254  
         H17       1.0000    0.13560   0.35200   0.95860   Biso      1.000     H          0.130866  
         H18       1.0000    0.36460   0.27470   0.98080   Biso      1.000     H          0.111934  
         H19       1.0000    0.57210   0.63510   0.78790   Biso      1.000     H          0.188727  
         H20       1.0000    0.71980   0.68070   0.75250   Biso      1.000     H          0.182255  
         H21       1.0000    0.63540   0.72530   0.48080   Biso      1.000     H          0.111934  
         H22       1.0000    0.86440   0.64800   0.45860   Biso      1.000     H          0.130866  
         H23       1.0000    0.18660   0.81950   0.47520   Biso      1.000     H          0.139713  
         H24       1.0000    0.95490   0.89740   0.49060   Biso      1.000     H          0.114322  
         H25       1.0000    0.04370   0.56120   0.53420   Biso      1.000     H          0.185999  
         H26       1.0000    0.09510   0.62950   0.57990   Biso      1.000     H          0.177128  
         H27       1.0000    0.21210   0.55900   0.57930   Biso      1.000     H          0.185024  
         H28       1.0000    0.35920   0.79250   0.37280   Biso      1.000     H          0.187908  
         H29       1.0000    0.42790   0.36490   0.28790   Biso      1.000     H          0.188727  
         H30       1.0000    0.20670   0.75370   0.33370   Biso      1.000     H          0.173915  
         H31       1.0000    0.27370   0.56510   0.77110   Biso      1.000     H          0.117775  
         H32       1.0000    0.05540   0.57650   0.68990   Biso      1.000     H          0.124507  
         H33       1.0000    0.71880   0.49370   0.82570   Biso      1.000     H          0.141498  
         H34       1.0000    0.93750   0.48500   0.90790   Biso      1.000     H          0.113631  
         H35       1.0000    0.75360   0.40640   0.58750   Biso      1.000     H          0.195073  
         H36       1.0000    0.82600   0.40490   0.66380   Biso      1.000     H          0.183186  
         H37       1.0000    0.92710   0.44660   0.60510   Biso      1.000     H          0.186774  
         H38       1.0000    0.52790   0.69330   0.73010   Biso      1.000     H          0.187053  
         H39       1.0000    0.39750   0.73310   0.31540   Biso      1.000     H          0.183303  
         H40       1.0000    0.36460   0.22530   0.48080   Biso      1.000     H          0.111935  
         H41       1.0000    0.90490   0.37050   0.07990   Biso      1.000     H          0.177128  
         H42       1.0000    0.81340   0.31950   0.47520   Biso      1.000     H          0.139713  
         H43       1.0000    0.04370   0.93880   0.03420   Biso      1.000     H          0.185999  
         H44       1.0000    0.09510   0.87050   0.07990   Biso      1.000     H          0.177128  
         H45       1.0000    0.21210   0.94100   0.07930   Biso      1.000     H          0.185024  
         H46       1.0000    0.35920   0.70750   0.87280   Biso      1.000     H          0.187908  
         H47       1.0000    0.20670   0.74630   0.83370   Biso      1.000     H          0.173915  
         H48       1.0000    0.39750   0.76690   0.81540   Biso      1.000     H          0.183303  
         H49       1.0000    0.27370   0.93490   0.27110   Biso      1.000     H          0.117775  
         H50       1.0000    0.95490   0.60260   0.99060   Biso      1.000     H          0.114322  
         H51       1.0000    0.05540   0.92350   0.18990   Biso      1.000     H          0.124507  
         H52       1.0000    0.93750   0.01500   0.40790   Biso      1.000     H          0.113631  
         H53       1.0000    0.75360   0.09360   0.08750   Biso      1.000     H          0.195073  
         H54       1.0000    0.13560   0.14800   0.45860   Biso      1.000     H          0.130866  
         H55       1.0000    0.92710   0.05340   0.10510   Biso      1.000     H          0.186774  
         H56       1.0000    0.52790   0.80670   0.23010   Biso      1.000     H          0.187054  
         H57       1.0000    0.71980   0.81930   0.25250   Biso      1.000     H          0.182254  
         H58       1.0000    0.57210   0.86490   0.28790   Biso      1.000     H          0.188727  
         H59       1.0000    0.71880   0.00630   0.32570   Biso      1.000     H          0.141498  
         H60       1.0000    0.18660   0.68050   0.97520   Biso      1.000     H          0.139713  
         H61       1.0000    0.82600   0.09510   0.16380   Biso      1.000     H          0.183186  
         H62       1.0000    0.63540   0.77470   0.98080   Biso      1.000     H          0.111934  
         H63       1.0000    0.86440   0.85200   0.95860   Biso      1.000     H          0.130866  
         H64       1.0000    0.04510   0.39740   0.49060   Biso      1.000     H          0.114322  
         H65       1.0000    0.95630   0.06120   0.53420   Biso      1.000     H          0.185999  
         H66       1.0000    0.90490   0.12950   0.57990   Biso      1.000     H          0.177128  
         H67       1.0000    0.64080   0.29250   0.37280   Biso      1.000     H          0.187908  
         H68       1.0000    0.79330   0.25370   0.33370   Biso      1.000     H          0.173915  
         H69       1.0000    0.60250   0.23310   0.31540   Biso      1.000     H          0.183303  
         H70       1.0000    0.72630   0.06510   0.77110   Biso      1.000     H          0.117775  
         H71       1.0000    0.94460   0.07650   0.68990   Biso      1.000     H          0.124507  
         H72       1.0000    0.78790   0.05900   0.57930   Biso      1.000     H          0.185024  
         H73       1.0000    0.06250   0.98500   0.90790   Biso      1.000     H          0.113631  
         H74       1.0000    0.24640   0.90640   0.58750   Biso      1.000     H          0.195073  
         H75       1.0000    0.17400   0.90490   0.66380   Biso      1.000     H          0.183186  
         H76       1.0000    0.07290   0.94660   0.60510   Biso      1.000     H          0.186774  
         H77       1.0000    0.47210   0.19330   0.73010   Biso      1.000     H          0.187054  
         H78       1.0000    0.28020   0.18070   0.75250   Biso      1.000     H          0.182254  
         H79       1.0000    0.42790   0.13510   0.78790   Biso      1.000     H          0.188727  
         H80       1.0000    0.28120   0.99370   0.82570   Biso      1.000     H          0.141498  
         N1        1.0000    0.61660   0.09531   0.46898   Biso      1.000     N          -0.247206           
         N2        1.0000    0.56600   0.13825   0.41322   Biso      1.000     N          -0.280819           
         N3        1.0000    0.80890   0.17955   0.45407   Biso      1.000     N          -0.147308           
         N4        1.0000    0.39790   0.03260   0.60012   Biso      1.000     N          -0.25459  
         N5        1.0000    0.45630   0.09536   0.63388   Biso      1.000     N          -0.297578           
         N6        1.0000    0.73970   0.95757   0.19763   Biso      1.000     N          -0.163183           
         N7        1.0000    0.19110   0.82045   0.95407   Biso      1.000     N          -0.147308           
         N8        1.0000    0.38340   0.90469   0.96898   Biso      1.000     N          -0.247205           
         N9        1.0000    0.43400   0.86175   0.91322   Biso      1.000     N          -0.28082  
         N10       1.0000    0.60210   0.96740   0.10012   Biso      1.000     N          -0.254589           
         N11       1.0000    0.26030   0.45757   0.19763   Biso      1.000     N          -0.163183           
         N12       1.0000    0.54370   0.90464   0.13388   Biso      1.000     N          -0.297578           
         N13       1.0000    0.26030   0.04243   0.69763   Biso      1.000     N          -0.163183           
         N14       1.0000    0.45630   0.40464   0.13388   Biso      1.000     N          -0.297583           
         N15       1.0000    0.19110   0.67955   0.45407   Biso      1.000     N          -0.147308           
         N16       1.0000    0.80890   0.32045   0.95407   Biso      1.000     N          -0.147308           
         N17       1.0000    0.56600   0.36175   0.91322   Biso      1.000     N          -0.280824           
         N18       1.0000    0.61660   0.40469   0.96898   Biso      1.000     N          -0.2472   
         N19       1.0000    0.73970   0.54243   0.69763   Biso      1.000     N          -0.163183           
         N20       1.0000    0.54370   0.59536   0.63388   Biso      1.000     N          -0.297583           
         N21       1.0000    0.60210   0.53260   0.60012   Biso      1.000     N          -0.254584           
         N22       1.0000    0.43400   0.63825   0.41322   Biso      1.000     N          -0.280824           
         N23       1.0000    0.38340   0.59531   0.46898   Biso      1.000     N          -0.2472   
         N24       1.0000    0.39790   0.46740   0.10012   Biso      1.000     N          -0.254584           
         O1        1.0000    0.58030   0.46658   0.37939   Biso      1.000     O          -0.551895           
         O2        1.0000    0.34072   0.43721   0.50596   Biso      1.000     O          -0.571112           
         O3        1.0000    0.52320   0.34394   0.50720   Biso      1.000     O          -0.576068           
         O4        1.0000    0.47680   0.65606   0.00720   Biso      1.000     O          -0.576068           
         O5        1.0000    0.76000   0.50621   0.45815   Biso      1.000     O          -0.557455           
         O6        1.0000    0.58030   0.03342   0.87939   Biso      1.000     O          -0.551896           
         O7        1.0000    0.65928   0.56279   0.00596   Biso      1.000     O          -0.571112           
         O8        1.0000    0.76000   0.99379   0.95815   Biso      1.000     O          -0.557455           
         O9        1.0000    0.52320   0.15606   0.00720   Biso      1.000     O          -0.576068           
         O10       1.0000    0.41970   0.96658   0.37939   Biso      1.000     O          -0.551896           
         O11       1.0000    0.41970   0.53342   0.87939   Biso      1.000     O          -0.551895           
         O12       1.0000    0.24000   0.49379   0.95815   Biso      1.000     O          -0.557455           
         O13       1.0000    0.47680   0.84394   0.50720   Biso      1.000     O          -0.576069           
         O14       1.0000    0.65928   0.93721   0.50596   Biso      1.000     O          -0.571112           
         O15       1.0000    0.24000   0.00621   0.45815   Biso      1.000     O          -0.557455           
         O16       1.0000    0.34072   0.06279   0.00596   Biso      1.000     O          -0.571112           
         Zn1       1.0000    0.52538   0.99186   0.99999   Biso      1.000     Zn          0.794158  
         Zn2       1.0000    0.47462   0.00814   0.49999   Biso      1.000     Zn          0.794159  
         Zn3       1.0000    0.47462   0.49186   0.99999   Biso      1.000     Zn          0.794158  
         Zn4       1.0000    0.52538   0.50814   0.49999   Biso      1.000     Zn          0.794157 