
##########################################################################
#               Crystallographic Information Format file
#               Produced by PyCifRW module
#
#  This is a CIF file.  CIF has been adopted by the International
#  Union of Crystallography as the standard for data archiving and
#  transmission.
#
#  For information on this file format, follow the CIF links at
#  http://www.iucr.org
##########################################################################

data_image0

_cell_length_a                          4.7931
_cell_length_b                          7.8941
_cell_length_c                          8.5315
_cell_angle_alpha                       117.558
_cell_angle_beta                        90
_cell_angle_gamma                       90
_symmetry_space_group_name_H-M          'P 1'
_symmetry_int_tables_number             1
loop_
  _symmetry_equiv_pos_as_xyz
         'x, y, z' 
loop_
  _atom_site_label
  _atom_site_occupancy
  _atom_site_fract_x
  _atom_site_fract_y
  _atom_site_fract_z
  _atom_site_thermal_displace_type
  _atom_site_B_iso_or_equiv
  _atom_site_type_symbol
  _atom_site_charge
         C1        1.0000    0.00000   0.41710   0.44980   Biso      1.000     C          0.9185840000000001  
         C2        1.0000    0.00000   0.96730   0.55020   Biso      1.000     C          0.920967  
         C3        1.0000    0.50000   0.89660   0.00000   Biso      1.000     C          0.550902  
         C4        1.0000    0.50000   0.09170   0.00000   Biso      1.000     C          0.524782  
         Gd1       1.0000    0.50000   0.79282   0.58564   Biso      1.000     Gd          2.1391430000000002  
         Gd2       1.0000    0.50000   0.20718   0.41436   Biso      1.000     Gd          2.1384790000000002  
         O1        1.0000    0.76440   0.49950   0.49160   Biso      1.000     O          -0.789493           
         O2        1.0000    0.23560   0.00790   0.50840   Biso      1.000     O          -0.7903979999999999           
         O3        1.0000    0.76440   0.00790   0.50840   Biso      1.000     O          -0.790397           
         O4        1.0000    0.23560   0.49950   0.49160   Biso      1.000     O          -0.789493           
         O5        1.0000    0.50000   0.90240   0.14900   Biso      1.000     O          -0.613075           
         O6        1.0000    0.50000   0.23950   0.14660   Biso      1.000     O          -0.6045050000000001           
         O7        1.0000    0.50000   0.75340   0.85100   Biso      1.000     O          -0.612993           
         O8        1.0000    0.50000   0.09290   0.85340   Biso      1.000     O          -0.604466           
         O9        1.0000    0.00000   0.23270   0.36120   Biso      1.000     O          -0.798629           
         O10       1.0000    0.00000   0.87150   0.63880   Biso      1.000     O          -0.799407 