
##########################################################################
#               Crystallographic Information Format file
#               Produced by PyCifRW module
#
#  This is a CIF file.  CIF has been adopted by the International
#  Union of Crystallography as the standard for data archiving and
#  transmission.
#
#  For information on this file format, follow the CIF links at
#  http://www.iucr.org
##########################################################################

data_image0

_cell_length_a                          13.71
_cell_length_b                          14.753
_cell_length_c                          20.027
_cell_angle_alpha                       90
_cell_angle_beta                        107.969
_cell_angle_gamma                       90
_symmetry_space_group_name_H-M          'P 1'
_symmetry_int_tables_number             1
loop_
  _symmetry_equiv_pos_as_xyz
         'x, y, z' 
loop_
  _atom_site_label
  _atom_site_occupancy
  _atom_site_fract_x
  _atom_site_fract_y
  _atom_site_fract_z
  _atom_site_thermal_displace_type
  _atom_site_B_iso_or_equiv
  _atom_site_type_symbol
  _atom_site_charge
         C1        1.0000    0.35950   0.15730   0.40105   Biso      1.000     C          0.6026739999999999  
         C2        1.0000    0.81460   0.99240   0.55306   Biso      1.000     C          0.599294  
         C3        1.0000    0.42560   0.90890   0.76550   Biso      1.000     C          -0.08402799999999999          
         C4        1.0000    0.92900   0.00150   0.58936   Biso      1.000     C          -0.0033009999999999997        
         C5        1.0000    0.30250   0.79350   0.81120   Biso      1.000     C          -0.093113           
         C6        1.0000    0.46810   0.83480   0.80600   Biso      1.000     C          -0.101845           
         C7        1.0000    0.45310   0.69490   0.87291   Biso      1.000     C          0.6157520000000001  
         C8        1.0000    0.40610   0.77527   0.82903   Biso      1.000     C          -0.011614           
         C9        1.0000    0.32160   0.92542   0.74637   Biso      1.000     C          -0.130625           
         C10       1.0000    0.13960   0.01653   0.65746   Biso      1.000     C          -0.141037           
         C11       1.0000    0.29884   0.11841   0.75843   Biso      1.000     C          -0.131851           
         C12       1.0000    0.66290   0.76330   0.64880   Biso      1.000     C          -0.0043170000000000005        
         C13       1.0000    0.33710   0.23670   0.35120   Biso      1.000     C          -0.0043170000000000005        
         C14       1.0000    0.07020   0.42600   0.17420   Biso      1.000     C          -0.09672599999999999          
         C15       1.0000    0.96590   0.43400   0.13940   Biso      1.000     C          -0.100025           
         C16       1.0000    0.30690   0.31840   0.37016   Biso      1.000     C          -0.096185           
         C17       1.0000    0.34690   0.22740   0.28563   Biso      1.000     C          -0.105144           
         C18       1.0000    0.28740   0.39130   0.32388   Biso      1.000     C          -0.099902           
         C19       1.0000    0.26070   0.63220   0.27060   Biso      1.000     C          -0.09976499999999999          
         C20       1.0000    0.99810   0.55600   0.07235   Biso      1.000     C          -0.09953  
         C21       1.0000    0.10140   0.54780   0.10550   Biso      1.000     C          -0.081447           
         C22       1.0000    0.32780   0.30000   0.23901   Biso      1.000     C          -0.083633           
         C23       1.0000    0.81460   0.50760   0.05306   Biso      1.000     C          0.5992930000000001  
         C24       1.0000    0.42560   0.59110   0.26550   Biso      1.000     C          -0.08402899999999999          
         C25       1.0000    0.92900   0.49850   0.08936   Biso      1.000     C          -0.003288           
         C26       1.0000    0.30250   0.70650   0.31120   Biso      1.000     C          -0.093111           
         C27       1.0000    0.32780   0.20000   0.73901   Biso      1.000     C          -0.083623           
         C28       1.0000    0.10140   0.95220   0.60550   Biso      1.000     C          -0.081451           
         C29       1.0000    0.99810   0.94400   0.57235   Biso      1.000     C          -0.099522           
         C30       1.0000    0.26070   0.86780   0.77060   Biso      1.000     C          -0.09976  
         C31       1.0000    0.92980   0.57400   0.82580   Biso      1.000     C          -0.09672599999999999          
         C32       1.0000    0.03410   0.56600   0.86060   Biso      1.000     C          -0.100025           
         C33       1.0000    0.69310   0.68160   0.62984   Biso      1.000     C          -0.096185           
         C34       1.0000    0.65310   0.77260   0.71437   Biso      1.000     C          -0.105144           
         C35       1.0000    0.71260   0.60870   0.67612   Biso      1.000     C          -0.099902           
         C36       1.0000    0.73930   0.36780   0.72940   Biso      1.000     C          -0.09976499999999999          
         C37       1.0000    0.00190   0.44400   0.92765   Biso      1.000     C          -0.09953  
         C38       1.0000    0.89860   0.45220   0.89450   Biso      1.000     C          -0.081447           
         C39       1.0000    0.67220   0.70000   0.76099   Biso      1.000     C          -0.083633           
         C40       1.0000    0.18540   0.49240   0.94694   Biso      1.000     C          0.5992930000000001  
         C41       1.0000    0.57440   0.40890   0.73450   Biso      1.000     C          -0.08402899999999999          
         C42       1.0000    0.07100   0.50150   0.91064   Biso      1.000     C          -0.003288           
         C43       1.0000    0.46810   0.66520   0.30600   Biso      1.000     C          -0.101845           
         C44       1.0000    0.69750   0.29350   0.68880   Biso      1.000     C          -0.093111           
         C45       1.0000    0.54690   0.19490   0.62709   Biso      1.000     C          0.6157520000000001  
         C46       1.0000    0.59390   0.27527   0.67097   Biso      1.000     C          -0.011614           
         C47       1.0000    0.67840   0.42542   0.75363   Biso      1.000     C          -0.13062200000000002          
         C48       1.0000    0.86040   0.51653   0.84254   Biso      1.000     C          -0.141034           
         C49       1.0000    0.70116   0.61841   0.74157   Biso      1.000     C          -0.131838           
         C50       1.0000    0.35950   0.34270   0.90105   Biso      1.000     C          0.6026739999999999  
         C51       1.0000    0.33710   0.26330   0.85120   Biso      1.000     C          -0.0043170000000000005        
         C52       1.0000    0.07020   0.07400   0.67420   Biso      1.000     C          -0.096728           
         C53       1.0000    0.96590   0.06600   0.63940   Biso      1.000     C          -0.100013           
         C54       1.0000    0.30690   0.18160   0.87016   Biso      1.000     C          -0.096185           
         C55       1.0000    0.34690   0.27260   0.78563   Biso      1.000     C          -0.105145           
         C56       1.0000    0.28740   0.10870   0.82388   Biso      1.000     C          -0.099898           
         C57       1.0000    0.53190   0.33480   0.69400   Biso      1.000     C          -0.101845           
         C58       1.0000    0.45310   0.80510   0.37291   Biso      1.000     C          0.6157520000000001  
         C59       1.0000    0.64050   0.84270   0.59895   Biso      1.000     C          0.6026739999999999  
         C60       1.0000    0.69310   0.81840   0.12984   Biso      1.000     C          -0.096195           
         C61       1.0000    0.67220   0.80000   0.26099   Biso      1.000     C          -0.083631           
         C62       1.0000    0.65310   0.72740   0.21437   Biso      1.000     C          -0.105152           
         C63       1.0000    0.64050   0.65730   0.09895   Biso      1.000     C          0.6026729999999999  
         C64       1.0000    0.66290   0.73670   0.14880   Biso      1.000     C          -0.004302           
         C65       1.0000    0.89860   0.04780   0.39450   Biso      1.000     C          -0.081453           
         C66       1.0000    0.92980   0.92600   0.32580   Biso      1.000     C          -0.09672599999999999          
         C67       1.0000    0.70116   0.88159   0.24157   Biso      1.000     C          -0.13184  
         C68       1.0000    0.40610   0.72473   0.32903   Biso      1.000     C          -0.011614           
         C69       1.0000    0.73930   0.13220   0.22940   Biso      1.000     C          -0.09976499999999999          
         C70       1.0000    0.03410   0.93400   0.36060   Biso      1.000     C          -0.100025           
         C71       1.0000    0.67840   0.07458   0.25363   Biso      1.000     C          -0.130623           
         C72       1.0000    0.71260   0.89130   0.17612   Biso      1.000     C          -0.099898           
         C73       1.0000    0.69750   0.20650   0.18880   Biso      1.000     C          -0.093111           
         C74       1.0000    0.59390   0.22473   0.17097   Biso      1.000     C          -0.011614           
         C75       1.0000    0.00190   0.05600   0.42765   Biso      1.000     C          -0.099525           
         C76       1.0000    0.18540   0.00760   0.44694   Biso      1.000     C          0.5992930000000001  
         C77       1.0000    0.86040   0.98347   0.34254   Biso      1.000     C          -0.141034           
         C78       1.0000    0.54690   0.30510   0.12709   Biso      1.000     C          0.6157520000000001  
         C79       1.0000    0.57440   0.09110   0.23450   Biso      1.000     C          -0.084027           
         C80       1.0000    0.53190   0.16520   0.19400   Biso      1.000     C          -0.101845           
         C81       1.0000    0.29884   0.38159   0.25843   Biso      1.000     C          -0.131838           
         C82       1.0000    0.32160   0.57458   0.24637   Biso      1.000     C          -0.13062200000000002          
         C83       1.0000    0.13960   0.48347   0.15746   Biso      1.000     C          -0.141034           
         C84       1.0000    0.07100   0.99850   0.41064   Biso      1.000     C          -0.0032890000000000003        
         H1        1.0000    0.53220   0.05170   0.24930   Biso      1.000     H          0.119827  
         H2        1.0000    0.46170   0.32450   0.68190   Biso      1.000     H          0.120457  
         H3        1.0000    0.56700   0.05130   0.43500   Biso      1.000     H          0.43613100000000005           
         H4        1.0000    0.46780   0.94830   0.75070   Biso      1.000     H          0.119827  
         H5        1.0000    0.80920   0.12080   0.24060   Biso      1.000     H          0.109832  
         H6        1.0000    0.43300   0.94870   0.56500   Biso      1.000     H          0.43613100000000005           
         H7        1.0000    0.26020   0.75520   0.82680   Biso      1.000     H          0.125237  
         H8        1.0000    0.46170   0.17550   0.18190   Biso      1.000     H          0.120457  
         H9        1.0000    0.73980   0.24480   0.17320   Biso      1.000     H          0.125237  
         H10       1.0000    0.02590   0.10030   0.46180   Biso      1.000     H          0.121527  
         H11       1.0000    0.14670   0.91380   0.59300   Biso      1.000     H          0.115133  
         H12       1.0000    0.29940   0.17460   0.91450   Biso      1.000     H          0.12111500000000001           
         H13       1.0000    0.73980   0.25520   0.67320   Biso      1.000     H          0.125237  
         H14       1.0000    0.56700   0.44870   0.93500   Biso      1.000     H          0.43613100000000005           
         H15       1.0000    0.97410   0.89970   0.53820   Biso      1.000     H          0.121527  
         H16       1.0000    0.19080   0.87920   0.75940   Biso      1.000     H          0.109832  
         H17       1.0000    0.09370   0.11790   0.70870   Biso      1.000     H          0.10878099999999999           
         H18       1.0000    0.66520   0.79270   0.30540   Biso      1.000     H          0.112679  
         H19       1.0000    0.26670   0.05340   0.83720   Biso      1.000     H          0.109826  
         H20       1.0000    0.36670   0.32810   0.77200   Biso      1.000     H          0.11599300000000001           
         H21       1.0000    0.92040   0.10550   0.65060   Biso      1.000     H          0.12288800000000001           
         H22       1.0000    0.33480   0.20730   0.69460   Biso      1.000     H          0.112678  
         H23       1.0000    0.73330   0.94660   0.16280   Biso      1.000     H          0.109826  
         H24       1.0000    0.85330   0.08620   0.40700   Biso      1.000     H          0.115133  
         H25       1.0000    0.63330   0.67190   0.22800   Biso      1.000     H          0.11599300000000001           
         H26       1.0000    0.90630   0.61790   0.79130   Biso      1.000     H          0.10878099999999999           
         H27       1.0000    0.53830   0.67550   0.31810   Biso      1.000     H          0.120457  
         H28       1.0000    0.07960   0.60550   0.84940   Biso      1.000     H          0.12288900000000001           
         H29       1.0000    0.26020   0.74480   0.32680   Biso      1.000     H          0.125237  
         H30       1.0000    0.43300   0.55130   0.06500   Biso      1.000     H          0.43613100000000005           
         H31       1.0000    0.70060   0.67460   0.58550   Biso      1.000     H          0.12111500000000001           
         H32       1.0000    0.46780   0.55170   0.25070   Biso      1.000     H          0.119827  
         H33       1.0000    0.63330   0.82810   0.72800   Biso      1.000     H          0.11599300000000001           
         H34       1.0000    0.33480   0.29270   0.19460   Biso      1.000     H          0.112679  
         H35       1.0000    0.14670   0.58620   0.09300   Biso      1.000     H          0.115133  
         H36       1.0000    0.97410   0.60030   0.03820   Biso      1.000     H          0.121528  
         H37       1.0000    0.73330   0.55340   0.66280   Biso      1.000     H          0.109826  
         H38       1.0000    0.19080   0.62080   0.25940   Biso      1.000     H          0.109832  
         H39       1.0000    0.53830   0.82450   0.81810   Biso      1.000     H          0.120457  
         H40       1.0000    0.80920   0.37920   0.74060   Biso      1.000     H          0.109832  
         H41       1.0000    0.26670   0.44660   0.33720   Biso      1.000     H          0.109826  
         H42       1.0000    0.29940   0.32540   0.41450   Biso      1.000     H          0.12111500000000001           
         H43       1.0000    0.92040   0.39450   0.15060   Biso      1.000     H          0.12288900000000001           
         H44       1.0000    0.09370   0.38210   0.20870   Biso      1.000     H          0.10878099999999999           
         H45       1.0000    0.90630   0.88210   0.29130   Biso      1.000     H          0.10878099999999999           
         H46       1.0000    0.02590   0.39970   0.96180   Biso      1.000     H          0.121528  
         H47       1.0000    0.85330   0.41380   0.90700   Biso      1.000     H          0.115133  
         H48       1.0000    0.53220   0.44830   0.74930   Biso      1.000     H          0.119827  
         H49       1.0000    0.66520   0.70730   0.80540   Biso      1.000     H          0.112679  
         H50       1.0000    0.36670   0.17190   0.27200   Biso      1.000     H          0.11599300000000001           
         H51       1.0000    0.07960   0.89450   0.34940   Biso      1.000     H          0.12288900000000001           
         H52       1.0000    0.70060   0.82540   0.08550   Biso      1.000     H          0.121116  
         O1        1.0000    0.24359   0.95582   0.42823   Biso      1.000     O          -0.560851           
         O2        1.0000    0.56004   0.49475   0.95858   Biso      1.000     O          -0.9317340000000001           
         O3        1.0000    0.62840   0.82782   0.53597   Biso      1.000     O          -0.590721           
         O4        1.0000    0.67001   0.95921   0.35710   Biso      1.000     O          -0.663579           
         O5        1.0000    0.60718   0.35672   0.10874   Biso      1.000     O          -0.5514399999999999           
         O6        1.0000    0.63642   0.58086   0.12536   Biso      1.000     O          -0.56433  
         O7        1.0000    0.21072   0.06765   0.49370   Biso      1.000     O          -0.58165  
         O8        1.0000    0.45182   0.31415   0.11301   Biso      1.000     O          -0.559847           
         O9        1.0000    0.62840   0.67218   0.03597   Biso      1.000     O          -0.590721           
         O10       1.0000    0.24359   0.54418   0.92823   Biso      1.000     O          -0.560851           
         O11       1.0000    0.37160   0.17218   0.46403   Biso      1.000     O          -0.590721           
         O12       1.0000    0.63642   0.91914   0.62536   Biso      1.000     O          -0.56433  
         O13       1.0000    0.78928   0.56765   0.00630   Biso      1.000     O          -0.581649           
         O14       1.0000    0.36358   0.08086   0.37464   Biso      1.000     O          -0.56433  
         O15       1.0000    0.43996   0.50525   0.04142   Biso      1.000     O          -0.9317340000000001           
         O16       1.0000    0.60718   0.14328   0.60874   Biso      1.000     O          -0.5514399999999999           
         O17       1.0000    0.32999   0.04079   0.64290   Biso      1.000     O          -0.663579           
         O18       1.0000    0.54818   0.68585   0.88699   Biso      1.000     O          -0.559847           
         O19       1.0000    0.78928   0.93235   0.50630   Biso      1.000     O          -0.58165  
         O20       1.0000    0.36358   0.41914   0.87464   Biso      1.000     O          -0.56433  
         O21       1.0000    0.39282   0.64328   0.89126   Biso      1.000     O          -0.5514399999999999           
         O22       1.0000    0.75641   0.04418   0.57177   Biso      1.000     O          -0.560851           
         O23       1.0000    0.37160   0.32782   0.96403   Biso      1.000     O          -0.590721           
         O24       1.0000    0.43996   0.99475   0.54142   Biso      1.000     O          -0.9317350000000001           
         O25       1.0000    0.56004   0.00525   0.45858   Biso      1.000     O          -0.9317350000000001           
         O26       1.0000    0.39282   0.85672   0.39126   Biso      1.000     O          -0.5514399999999999           
         O27       1.0000    0.75641   0.45582   0.07177   Biso      1.000     O          -0.560851           
         O28       1.0000    0.67001   0.54079   0.85710   Biso      1.000     O          -0.663579           
         O29       1.0000    0.45182   0.18585   0.61301   Biso      1.000     O          -0.559847           
         O30       1.0000    0.21072   0.43235   0.99370   Biso      1.000     O          -0.581649           
         O31       1.0000    0.54818   0.81415   0.38699   Biso      1.000     O          -0.559847           
         O32       1.0000    0.32999   0.45921   0.14290   Biso      1.000     O          -0.663579           
         P1        1.0000    0.72426   0.97341   0.30400   Biso      1.000     P          0.836299  
         P2        1.0000    0.27574   0.02659   0.69600   Biso      1.000     P          0.8363    
         P3        1.0000    0.72426   0.52659   0.80400   Biso      1.000     P          0.836298  
         P4        1.0000    0.27574   0.47341   0.19600   Biso      1.000     P          0.836298  
         Zn1       1.0000    0.35162   0.40111   0.05285   Biso      1.000     Zn          1.06079   
         Zn2       1.0000    0.59845   0.47480   0.06213   Biso      1.000     Zn          1.013971  
         Zn3       1.0000    0.59845   0.02520   0.56213   Biso      1.000     Zn          1.013971  
         Zn4       1.0000    0.35162   0.09889   0.55285   Biso      1.000     Zn          1.06079   
         Zn5       1.0000    0.40155   0.52520   0.93787   Biso      1.000     Zn          1.013971  
         Zn6       1.0000    0.64838   0.59889   0.94715   Biso      1.000     Zn          1.06079   
         Zn7       1.0000    0.64838   0.90111   0.44715   Biso      1.000     Zn          1.06079   
         Zn8       1.0000    0.40155   0.97480   0.43787   Biso      1.000     Zn          1.013971 