
##########################################################################
#               Crystallographic Information Format file
#               Produced by PyCifRW module
#
#  This is a CIF file.  CIF has been adopted by the International
#  Union of Crystallography as the standard for data archiving and
#  transmission.
#
#  For information on this file format, follow the CIF links at
#  http://www.iucr.org
##########################################################################

data_image0

_cell_length_a                          10.684
_cell_length_b                          13.8482
_cell_length_c                          14.9604
_cell_angle_alpha                       76.4666
_cell_angle_beta                        69.0792
_cell_angle_gamma                       67.3094
_symmetry_space_group_name_H-M          'P 1'
_symmetry_int_tables_number             1
loop_
  _symmetry_equiv_pos_as_xyz
         'x, y, z' 
loop_
  _atom_site_label
  _atom_site_occupancy
  _atom_site_fract_x
  _atom_site_fract_y
  _atom_site_fract_z
  _atom_site_thermal_displace_type
  _atom_site_B_iso_or_equiv
  _atom_site_type_symbol
  _atom_site_charge
         C1        1.0000    0.66880   0.52830   0.30150   Biso      1.000     C          0.607252  
         C2        1.0000    0.51940   0.59620   0.46140   Biso      1.000     C          -0.111971           
         C3        1.0000    0.57930   0.51470   0.40430   Biso      1.000     C          -0.016567           
         C4        1.0000    0.13580   0.46620   0.40300   Biso      1.000     C          -0.103051           
         C5        1.0000    0.20590   0.38810   0.46230   Biso      1.000     C          -0.09236  
         C6        1.0000    0.82160   0.97510   0.23670   Biso      1.000     C          0.617242  
         C7        1.0000    0.88260   0.05860   0.17440   Biso      1.000     C          -0.017748           
         C8        1.0000    0.81320   0.16290   0.19290   Biso      1.000     C          -0.097234           
         C9        1.0000    0.86470   0.24110   0.13530   Biso      1.000     C          -0.107138           
         C10       1.0000    0.98700   0.21590   0.05670   Biso      1.000     C          -0.046367           
         C11       1.0000    0.56030   0.41850   0.44350   Biso      1.000     C          -0.1005   
         C12       1.0000    0.04060   0.30230   0.99370   Biso      1.000     C          0.645724  
         C13       1.0000    0.00500   0.03380   0.09700   Biso      1.000     C          -0.100226           
         C14       1.0000    0.49860   0.97170   0.19850   Biso      1.000     C          0.607172  
         C15       1.0000    0.49830   0.98530   0.09570   Biso      1.000     C          -0.01717  
         C16       1.0000    0.57700   0.90380   0.03860   Biso      1.000     C          -0.110381           
         C17       1.0000    0.42230   0.08150   0.05650   Biso      1.000     C          -0.101343           
         C18       1.0000    0.03340   0.52490   0.26330   Biso      1.000     C          0.618245  
         C19       1.0000    0.11560   0.44140   0.32560   Biso      1.000     C          -0.017555           
         C20       1.0000    0.16900   0.33710   0.30710   Biso      1.000     C          -0.100054           
         C21       1.0000    0.24110   0.25890   0.36470   Biso      1.000     C          -0.106524           
         C22       1.0000    0.05630   0.11190   0.03770   Biso      1.000     C          -0.097151           
         C23       1.0000    0.17840   0.02490   0.76330   Biso      1.000     C          0.617242  
         C24       1.0000    0.11740   0.94140   0.82560   Biso      1.000     C          -0.017748           
         C25       1.0000    0.18680   0.83710   0.80710   Biso      1.000     C          -0.097234           
         C26       1.0000    0.43970   0.58150   0.55650   Biso      1.000     C          -0.1005   
         C27       1.0000    0.48060   0.40380   0.53860   Biso      1.000     C          -0.11197  
         C28       1.0000    0.42070   0.48530   0.59570   Biso      1.000     C          -0.016566           
         C29       1.0000    0.33120   0.47170   0.69850   Biso      1.000     C          0.607252  
         C30       1.0000    0.86420   0.53380   0.59700   Biso      1.000     C          -0.103051           
         C31       1.0000    0.79410   0.61190   0.53770   Biso      1.000     C          -0.09236  
         C32       1.0000    0.66340   0.80230   0.49370   Biso      1.000     C          0.647446  
         C33       1.0000    0.74040   0.71590   0.55670   Biso      1.000     C          -0.046418           
         C34       1.0000    0.75890   0.74110   0.63530   Biso      1.000     C          -0.106525           
         C35       1.0000    0.83100   0.66290   0.69290   Biso      1.000     C          -0.100053           
         C36       1.0000    0.88440   0.55860   0.67440   Biso      1.000     C          -0.017554           
         C37       1.0000    0.96660   0.47510   0.73670   Biso      1.000     C          0.618245  
         C38       1.0000    0.57770   0.91850   0.94350   Biso      1.000     C          -0.101343           
         C39       1.0000    0.42300   0.09620   0.96140   Biso      1.000     C          -0.110382           
         C40       1.0000    0.50170   0.01470   0.90430   Biso      1.000     C          -0.017168           
         C41       1.0000    0.50140   0.02830   0.80150   Biso      1.000     C          0.607171  
         C42       1.0000    0.99500   0.96620   0.90300   Biso      1.000     C          -0.100226           
         C43       1.0000    0.94370   0.88810   0.96230   Biso      1.000     C          -0.097151           
         C44       1.0000    0.95940   0.69770   0.00630   Biso      1.000     C          0.645724  
         C45       1.0000    0.01300   0.78410   0.94330   Biso      1.000     C          -0.046367           
         C46       1.0000    0.13530   0.75890   0.86470   Biso      1.000     C          -0.107138           
         C47       1.0000    0.25960   0.28410   0.44330   Biso      1.000     C          -0.046419           
         C48       1.0000    0.33660   0.19770   0.50630   Biso      1.000     C          0.647446  
         Ca1       1.0000    0.50665   0.96810   0.38326   Biso      1.000     Ca          1.396007  
         Ca2       1.0000    0.14199   0.46810   0.88326   Biso      1.000     Ca          1.396334  
         Ca3       1.0000    0.85801   0.53190   0.11674   Biso      1.000     Ca          1.396334  
         Ca4       1.0000    0.49335   0.03190   0.61674   Biso      1.000     Ca          1.396007  
         Ca5       1.0000    0.78306   0.75000   0.25000   Biso      1.000     Ca          1.427907  
         Ca6       1.0000    0.21694   0.25000   0.75000   Biso      1.000     Ca          1.427907  
         H1        1.0000    0.39780   0.63790   0.59510   Biso      1.000     H          0.118911  
         H2        1.0000    0.72940   0.18050   0.24570   Biso      1.000     H          0.118749  
         H3        1.0000    0.81710   0.31210   0.14910   Biso      1.000     H          0.110083  
         H4        1.0000    0.13870   0.09440   0.98400   Biso      1.000     H          0.112483  
         H5        1.0000    0.05410   0.96250   0.08470   Biso      1.000     H          0.119524  
         H6        1.0000    0.63060   0.83780   0.06460   Biso      1.000     H          0.110074  
         H7        1.0000    0.36920   0.13790   0.09510   Biso      1.000     H          0.119658  
         H8        1.0000    0.15560   0.31950   0.25430   Biso      1.000     H          0.119874  
         H9        1.0000    0.27830   0.18790   0.35090   Biso      1.000     H          0.110553  
         H10       1.0000    0.21710   0.40560   0.51600   Biso      1.000     H          0.110511  
         H11       1.0000    0.46700   0.33780   0.56460   Biso      1.000     H          0.110489  
         H12       1.0000    0.53300   0.66220   0.43540   Biso      1.000     H          0.110489  
         H13       1.0000    0.10130   0.53750   0.41530   Biso      1.000     H          0.119468  
         H14       1.0000    0.78290   0.59440   0.48400   Biso      1.000     H          0.110511  
         H15       1.0000    0.72170   0.81210   0.64910   Biso      1.000     H          0.110553  
         H16       1.0000    0.84440   0.68050   0.74570   Biso      1.000     H          0.119874  
         H17       1.0000    0.63080   0.86210   0.90490   Biso      1.000     H          0.119658  
         H18       1.0000    0.89870   0.46250   0.58470   Biso      1.000     H          0.119468  
         H19       1.0000    0.94590   0.03750   0.91530   Biso      1.000     H          0.119524  
         H20       1.0000    0.86130   0.90560   0.01600   Biso      1.000     H          0.112483  
         H21       1.0000    0.18290   0.68790   0.85090   Biso      1.000     H          0.110083  
         H22       1.0000    0.27060   0.81950   0.75430   Biso      1.000     H          0.118749  
         H23       1.0000    0.60220   0.36210   0.40490   Biso      1.000     H          0.118911  
         H24       1.0000    0.36940   0.16220   0.93540   Biso      1.000     H          0.110074  
         O1        1.0000    0.12027   0.11693   0.78613   Biso      1.000     O          -0.626633           
         O2        1.0000    0.86797   0.71501   0.08665   Biso      1.000     O          -0.662281           
         O3        1.0000    0.00683   0.60864   0.97510   Biso      1.000     O          -0.695655           
         O4        1.0000    0.42588   0.11509   0.76715   Biso      1.000     O          -0.703285           
         O5        1.0000    0.97566   0.50599   0.80709   Biso      1.000     O          -0.675846           
         O6        1.0000    0.02333   0.38307   0.71387   Biso      1.000     O          -0.626487           
         O7        1.0000    0.66963   0.78499   0.41335   Biso      1.000     O          -0.663961           
         O8        1.0000    0.59057   0.89136   0.52490   Biso      1.000     O          -0.696269           
         O9        1.0000    0.28874   0.99401   0.69291   Biso      1.000     O          -0.675434           
         O10       1.0000    0.57695   0.95245   0.75245   Biso      1.000     O          -0.612606           
         O11       1.0000    0.71815   0.45245   0.25245   Biso      1.000     O          -0.612927           
         O12       1.0000    0.42305   0.04755   0.24755   Biso      1.000     O          -0.612606           
         O13       1.0000    0.40943   0.10864   0.47510   Biso      1.000     O          -0.69627  
         O14       1.0000    0.33037   0.21501   0.58665   Biso      1.000     O          -0.663961           
         O15       1.0000    0.97667   0.61693   0.28613   Biso      1.000     O          -0.626487           
         O16       1.0000    0.02434   0.49401   0.19291   Biso      1.000     O          -0.675846           
         O17       1.0000    0.57412   0.88491   0.23285   Biso      1.000     O          -0.703285           
         O18       1.0000    0.99317   0.39136   0.02490   Biso      1.000     O          -0.695655           
         O19       1.0000    0.13203   0.28499   0.91335   Biso      1.000     O          -0.662281           
         O20       1.0000    0.87973   0.88307   0.21387   Biso      1.000     O          -0.626633           
         O21       1.0000    0.71126   0.00599   0.30709   Biso      1.000     O          -0.675433           
         O22       1.0000    0.30812   0.38491   0.73285   Biso      1.000     O          -0.702562           
         O23       1.0000    0.69188   0.61509   0.26715   Biso      1.000     O          -0.702562           
         O24       1.0000    0.28185   0.54755   0.74755   Biso      1.000     O          -0.612927 