
##########################################################################
#               Crystallographic Information Format file
#               Produced by PyCifRW module
#
#  This is a CIF file.  CIF has been adopted by the International
#  Union of Crystallography as the standard for data archiving and
#  transmission.
#
#  For information on this file format, follow the CIF links at
#  http://www.iucr.org
##########################################################################

data_image0

_cell_length_a                          9.941
_cell_length_b                          13.627
_cell_length_c                          17.686
_cell_angle_alpha                       92.732
_cell_angle_beta                        90
_cell_angle_gamma                       90
_symmetry_space_group_name_H-M          'P 1'
_symmetry_int_tables_number             1
loop_
  _symmetry_equiv_pos_as_xyz
         'x, y, z' 
loop_
  _atom_site_label
  _atom_site_occupancy
  _atom_site_fract_x
  _atom_site_fract_y
  _atom_site_fract_z
  _atom_site_thermal_displace_type
  _atom_site_B_iso_or_equiv
  _atom_site_type_symbol
  _atom_site_charge
         C1        1.0000    0.84090   0.30040   0.81610   Biso      1.000     C          -0.115415           
         C2        1.0000    0.78840   0.45940   0.76930   Biso      1.000     C          -0.10423800000000001          
         C3        1.0000    0.84270   0.40340   0.82530   Biso      1.000     C          -0.029751999999999997         
         C4        1.0000    0.32990   0.73490   0.37580   Biso      1.000     C          0.642033  
         C5        1.0000    0.78500   0.25720   0.75070   Biso      1.000     C          -0.109548           
         C6        1.0000    0.73220   0.31400   0.69470   Biso      1.000     C          -0.024247           
         C7        1.0000    0.67010   0.26510   0.62420   Biso      1.000     C          0.642034  
         C8        1.0000    0.08540   0.12770   0.92230   Biso      1.000     C          0.645367  
         C9        1.0000    0.21870   0.24780   0.74970   Biso      1.000     C          -0.098572           
         C10       1.0000    0.16020   0.23550   0.81970   Biso      1.000     C          -0.09703099999999999          
         C11       1.0000    0.73390   0.41650   0.70410   Biso      1.000     C          -0.100633           
         C12       1.0000    0.15180   0.14190   0.84840   Biso      1.000     C          -0.051762           
         C13       1.0000    0.26860   0.07410   0.73860   Biso      1.000     C          -0.10655899999999999          
         C14       1.0000    0.27490   0.16720   0.71000   Biso      1.000     C          -0.0026579999999999998        
         C15       1.0000    0.34570   0.18140   0.63480   Biso      1.000     C          0.643374  
         C16       1.0000    0.40270   0.54830   0.60310   Biso      1.000     C          0.674294  
         C17       1.0000    0.23390   0.58350   0.79590   Biso      1.000     C          -0.10063899999999999          
         C18       1.0000    0.28840   0.54060   0.73070   Biso      1.000     C          -0.10423299999999999          
         C19       1.0000    0.34270   0.59660   0.67470   Biso      1.000     C          -0.029752999999999998         
         C20       1.0000    0.34090   0.69960   0.68390   Biso      1.000     C          -0.115415           
         C21       1.0000    0.28500   0.74280   0.74930   Biso      1.000     C          -0.109548           
         C22       1.0000    0.20500   0.06150   0.80700   Biso      1.000     C          -0.08907000000000001          
         C23       1.0000    0.23220   0.68600   0.80530   Biso      1.000     C          -0.024246           
         C24       1.0000    0.90270   0.45170   0.89690   Biso      1.000     C          0.674294  
         C25       1.0000    0.22510   0.16720   0.21000   Biso      1.000     C          -0.002657           
         C26       1.0000    0.83980   0.76450   0.18030   Biso      1.000     C          -0.09703200000000001          
         C27       1.0000    0.84820   0.85810   0.15160   Biso      1.000     C          -0.051762           
         C28       1.0000    0.79500   0.93850   0.19300   Biso      1.000     C          -0.089072           
         C29       1.0000    0.73140   0.92590   0.26140   Biso      1.000     C          -0.106557           
         C30       1.0000    0.72510   0.83280   0.29000   Biso      1.000     C          -0.0026579999999999998        
         C31       1.0000    0.65430   0.81860   0.36520   Biso      1.000     C          0.643374  
         C32       1.0000    0.59730   0.45170   0.39690   Biso      1.000     C          0.674294  
         C33       1.0000    0.76610   0.41650   0.20410   Biso      1.000     C          -0.10063899999999999          
         C34       1.0000    0.71160   0.45940   0.26930   Biso      1.000     C          -0.10423299999999999          
         C35       1.0000    0.15430   0.18140   0.13480   Biso      1.000     C          0.643374  
         C36       1.0000    0.65730   0.40340   0.32530   Biso      1.000     C          -0.029752999999999998         
         C37       1.0000    0.71500   0.25720   0.25070   Biso      1.000     C          -0.10955  
         C38       1.0000    0.76780   0.31400   0.19470   Biso      1.000     C          -0.024246           
         C39       1.0000    0.82990   0.26510   0.12420   Biso      1.000     C          0.642034  
         C40       1.0000    0.41460   0.12770   0.42230   Biso      1.000     C          0.645367  
         C41       1.0000    0.28130   0.24780   0.24970   Biso      1.000     C          -0.09857300000000001          
         C42       1.0000    0.33980   0.23550   0.31970   Biso      1.000     C          -0.09703099999999999          
         C43       1.0000    0.34820   0.14190   0.34840   Biso      1.000     C          -0.051762           
         C44       1.0000    0.29500   0.06150   0.30700   Biso      1.000     C          -0.089071           
         C45       1.0000    0.23140   0.07410   0.23860   Biso      1.000     C          -0.10655799999999999          
         C46       1.0000    0.65910   0.30040   0.31610   Biso      1.000     C          -0.11541400000000002          
         C47       1.0000    0.17010   0.73490   0.87580   Biso      1.000     C          0.642034  
         C48       1.0000    0.58540   0.87230   0.57770   Biso      1.000     C          0.645367  
         C49       1.0000    0.71870   0.75220   0.75030   Biso      1.000     C          -0.098572           
         C50       1.0000    0.09730   0.54830   0.10310   Biso      1.000     C          0.674294  
         C51       1.0000    0.26610   0.58350   0.29590   Biso      1.000     C          -0.10063899999999999          
         C52       1.0000    0.21160   0.54060   0.23070   Biso      1.000     C          -0.10423299999999999          
         C53       1.0000    0.15730   0.59660   0.17470   Biso      1.000     C          -0.029752999999999998         
         C54       1.0000    0.15910   0.69960   0.18390   Biso      1.000     C          -0.115415           
         C55       1.0000    0.21500   0.74280   0.24930   Biso      1.000     C          -0.10954900000000001          
         C56       1.0000    0.26780   0.68600   0.30530   Biso      1.000     C          -0.024246           
         C57       1.0000    0.78130   0.75220   0.25030   Biso      1.000     C          -0.098572           
         C58       1.0000    0.91460   0.87230   0.07770   Biso      1.000     C          0.645367  
         C59       1.0000    0.66020   0.76450   0.68030   Biso      1.000     C          -0.09703099999999999          
         C60       1.0000    0.65180   0.85810   0.65160   Biso      1.000     C          -0.051762           
         C61       1.0000    0.70500   0.93850   0.69300   Biso      1.000     C          -0.089072           
         C62       1.0000    0.76860   0.92590   0.76140   Biso      1.000     C          -0.106557           
         C63       1.0000    0.77490   0.83280   0.79000   Biso      1.000     C          -0.0026579999999999998        
         C64       1.0000    0.84570   0.81860   0.86520   Biso      1.000     C          0.643374  
         H1        1.0000    0.21730   0.81240   0.25580   Biso      1.000     H          0.115757  
         H2        1.0000    0.19810   0.54400   0.83400   Biso      1.000     H          0.12191099999999999           
         H3        1.0000    0.28890   0.47110   0.72390   Biso      1.000     H          0.11470999999999999           
         H4        1.0000    0.37740   0.73900   0.64600   Biso      1.000     H          0.111147  
         H5        1.0000    0.28270   0.81240   0.75580   Biso      1.000     H          0.115756  
         H6        1.0000    0.80770   0.98050   0.78870   Biso      1.000     H          0.121178  
         H7        1.0000    0.62580   0.70920   0.65170   Biso      1.000     H          0.110135  
         H8        1.0000    0.69770   0.00240   0.67410   Biso      1.000     H          0.117227  
         H9        1.0000    0.30770   0.01950   0.71130   Biso      1.000     H          0.121178  
         H10       1.0000    0.30190   0.54400   0.33400   Biso      1.000     H          0.12191099999999999           
         H11       1.0000    0.72050   0.68920   0.77110   Biso      1.000     H          0.12737300000000001           
         H12       1.0000    0.19770   0.99760   0.82590   Biso      1.000     H          0.117227  
         H13       1.0000    0.12580   0.29080   0.84830   Biso      1.000     H          0.110135  
         H14       1.0000    0.22050   0.31080   0.72890   Biso      1.000     H          0.12737300000000001           
         H15       1.0000    0.77950   0.68920   0.27110   Biso      1.000     H          0.12737300000000001           
         H16       1.0000    0.87420   0.70920   0.15170   Biso      1.000     H          0.110135  
         H17       1.0000    0.80230   0.00240   0.17410   Biso      1.000     H          0.117227  
         H18       1.0000    0.69230   0.98050   0.28870   Biso      1.000     H          0.121178  
         H19       1.0000    0.80190   0.45600   0.16600   Biso      1.000     H          0.12191099999999999           
         H20       1.0000    0.71110   0.52890   0.27610   Biso      1.000     H          0.11470999999999999           
         H21       1.0000    0.62260   0.26100   0.35400   Biso      1.000     H          0.111147  
         H22       1.0000    0.12260   0.73900   0.14600   Biso      1.000     H          0.111147  
         H23       1.0000    0.71730   0.18760   0.24420   Biso      1.000     H          0.115757  
         H24       1.0000    0.37420   0.29080   0.34830   Biso      1.000     H          0.110135  
         H25       1.0000    0.30230   0.99760   0.32590   Biso      1.000     H          0.117227  
         H26       1.0000    0.19230   0.01950   0.21130   Biso      1.000     H          0.121178  
         H27       1.0000    0.21110   0.47110   0.22390   Biso      1.000     H          0.11470999999999999           
         H28       1.0000    0.78890   0.52890   0.77610   Biso      1.000     H          0.11470999999999999           
         H29       1.0000    0.87740   0.26100   0.85400   Biso      1.000     H          0.111147  
         H30       1.0000    0.78270   0.18760   0.74420   Biso      1.000     H          0.115756  
         H31       1.0000    0.27950   0.31080   0.22890   Biso      1.000     H          0.12737300000000001           
         H32       1.0000    0.69810   0.45600   0.66600   Biso      1.000     H          0.12191099999999999           
         Mg1       1.0000    0.06872   0.89584   0.96419   Biso      1.000     Mg          1.426432  
         Mg2       1.0000    0.57041   0.65760   0.47650   Biso      1.000     Mg          1.4744    
         Mg3       1.0000    0.43128   0.89584   0.46419   Biso      1.000     Mg          1.426432  
         Mg4       1.0000    0.07041   0.34240   0.02350   Biso      1.000     Mg          1.4744    
         Mg5       1.0000    0.93128   0.10416   0.03581   Biso      1.000     Mg          1.426432  
         Mg6       1.0000    0.42959   0.34240   0.52350   Biso      1.000     Mg          1.4744    
         Mg7       1.0000    0.56872   0.10416   0.53581   Biso      1.000     Mg          1.426432  
         Mg8       1.0000    0.92959   0.65760   0.97650   Biso      1.000     Mg          1.4744    
         O1        1.0000    0.17380   0.26040   0.10280   Biso      1.000     O          -0.664062           
         O2        1.0000    0.41980   0.04170   0.44700   Biso      1.000     O          -0.705788           
         O3        1.0000    0.46820   0.19840   0.46030   Biso      1.000     O          -0.7076399999999999           
         O4        1.0000    0.81070   0.17370   0.11260   Biso      1.000     O          -0.686996           
         O5        1.0000    0.89640   0.31670   0.08080   Biso      1.000     O          -0.6838390000000001           
         O6        1.0000    0.62380   0.53980   0.40970   Biso      1.000     O          -0.665461           
         O7        1.0000    0.91980   0.95830   0.05300   Biso      1.000     O          -0.705788           
         O8        1.0000    0.58190   0.88840   0.38900   Biso      1.000     O          -0.687387           
         O9        1.0000    0.67380   0.73960   0.39720   Biso      1.000     O          -0.664062           
         O10       1.0000    0.08190   0.11160   0.11100   Biso      1.000     O          -0.687387           
         O11       1.0000    0.96820   0.80160   0.03970   Biso      1.000     O          -0.707639           
         O12       1.0000    0.31070   0.82630   0.38740   Biso      1.000     O          -0.686996           
         O13       1.0000    0.39640   0.68330   0.41920   Biso      1.000     O          -0.6838390000000001           
         O14       1.0000    0.52210   0.39940   0.43590   Biso      1.000     O          -0.714679           
         O15       1.0000    0.97790   0.39940   0.93590   Biso      1.000     O          -0.714679           
         O16       1.0000    0.68930   0.17370   0.61260   Biso      1.000     O          -0.686996           
         O17       1.0000    0.60360   0.31670   0.58080   Biso      1.000     O          -0.6838390000000001           
         O18       1.0000    0.12380   0.46020   0.09030   Biso      1.000     O          -0.665462           
         O19       1.0000    0.03180   0.19840   0.96030   Biso      1.000     O          -0.7076399999999999           
         O20       1.0000    0.08020   0.04170   0.94700   Biso      1.000     O          -0.705788           
         O21       1.0000    0.32620   0.26040   0.60280   Biso      1.000     O          -0.664062           
         O22       1.0000    0.41810   0.11160   0.61100   Biso      1.000     O          -0.687387           
         O23       1.0000    0.47790   0.60060   0.56410   Biso      1.000     O          -0.714679           
         O24       1.0000    0.37620   0.46020   0.59030   Biso      1.000     O          -0.665462           
         O25       1.0000    0.10360   0.68330   0.91920   Biso      1.000     O          -0.6838390000000001           
         O26       1.0000    0.18930   0.82630   0.88740   Biso      1.000     O          -0.686996           
         O27       1.0000    0.53180   0.80160   0.53970   Biso      1.000     O          -0.7076399999999999           
         O28       1.0000    0.58020   0.95830   0.55300   Biso      1.000     O          -0.705788           
         O29       1.0000    0.82620   0.73960   0.89720   Biso      1.000     O          -0.664062           
         O30       1.0000    0.91810   0.88840   0.88900   Biso      1.000     O          -0.687387           
         O31       1.0000    0.87620   0.53980   0.90970   Biso      1.000     O          -0.665461           
         O32       1.0000    0.02210   0.60060   0.06410   Biso      1.000     O          -0.714679 