
##########################################################################
#               Crystallographic Information Format file
#               Produced by PyCifRW module
#
#  This is a CIF file.  CIF has been adopted by the International
#  Union of Crystallography as the standard for data archiving and
#  transmission.
#
#  For information on this file format, follow the CIF links at
#  http://www.iucr.org
##########################################################################

data_image0

_cell_length_a                          9.806
_cell_length_b                          10.599
_cell_length_c                          10.599
_cell_angle_alpha                       120
_cell_angle_beta                        90
_cell_angle_gamma                       90
_symmetry_space_group_name_H-M          'P 1'
_symmetry_int_tables_number             1
loop_
  _symmetry_equiv_pos_as_xyz
         'x, y, z' 
loop_
  _atom_site_label
  _atom_site_occupancy
  _atom_site_fract_x
  _atom_site_fract_y
  _atom_site_fract_z
  _atom_site_thermal_displace_type
  _atom_site_B_iso_or_equiv
  _atom_site_type_symbol
  _atom_site_charge
         C1        1.0000    0.91333   0.37680   0.44470   Biso      1.000     C          -0.107548           
         C2        1.0000    0.79850   0.64540   0.91010   Biso      1.000     C          -0.106603           
         C3        1.0000    0.08633   0.51260   0.38390   Biso      1.000     C          0.637165  
         C4        1.0000    0.04283   0.38220   0.39660   Biso      1.000     C          -0.025485           
         C5        1.0000    0.87103   0.25650   0.45240   Biso      1.000     C          -0.10169500000000001          
         C6        1.0000    0.95863   0.13830   0.41100   Biso      1.000     C          -0.018937           
         C7        1.0000    0.90853   0.00850   0.42030   Biso      1.000     C          0.6019329999999999  
         C8        1.0000    0.08913   0.14370   0.36200   Biso      1.000     C          -0.123851           
         C9        1.0000    0.75580   0.63800   0.78170   Biso      1.000     C          -0.12388900000000001          
         C10       1.0000    0.13183   0.26470   0.35460   Biso      1.000     C          -0.104751           
         C11       1.0000    0.37617   0.01440   0.61780   Biso      1.000     C          -0.021634           
         C12       1.0000    0.24667   0.06790   0.62320   Biso      1.000     C          -0.109595           
         C13       1.0000    0.20437   0.19590   0.74350   Biso      1.000     C          -0.101914           
         C14       1.0000    0.29197   0.27270   0.86170   Biso      1.000     C          -0.019165           
         C15       1.0000    0.24187   0.41180   0.99150   Biso      1.000     C          0.6038939999999999  
         C16       1.0000    0.42247   0.21830   0.85630   Biso      1.000     C          -0.123453           
         C17       1.0000    0.46517   0.08990   0.73530   Biso      1.000     C          -0.10544400000000001          
         C18       1.0000    0.41967   0.87130   0.48740   Biso      1.000     C          0.636791  
         C19       1.0000    0.62530   0.58900   0.72730   Biso      1.000     C          -0.019292           
         C20       1.0000    0.57520   0.57970   0.58820   Biso      1.000     C          0.602975  
         C21       1.0000    0.58000   0.55530   0.93210   Biso      1.000     C          -0.10961099999999999          
         C22       1.0000    0.70950   0.60340   0.98560   Biso      1.000     C          -0.023226           
         C23       1.0000    0.75300   0.61610   0.12870   Biso      1.000     C          0.6366350000000001  
         C24       1.0000    0.53770   0.54760   0.80410   Biso      1.000     C          -0.10065199999999999          
         H1        1.0000    0.14810   0.06550   0.33400   Biso      1.000     H          0.10827300000000001           
         H2        1.0000    0.45037   0.51460   0.76890   Biso      1.000     H          0.11990799999999999           
         H3        1.0000    0.81477   0.66600   0.73150   Biso      1.000     H          0.10826   
         H4        1.0000    0.88577   0.67820   0.94580   Biso      1.000     H          0.11464400000000001           
         H5        1.0000    0.85410   0.45480   0.47220   Biso      1.000     H          0.10893299999999999           
         H6        1.0000    0.78370   0.25430   0.48540   Biso      1.000     H          0.120494  
         H7        1.0000    0.18744   0.01740   0.54520   Biso      1.000     H          0.109247  
         H8        1.0000    0.52077   0.52780   0.98260   Biso      1.000     H          0.10932599999999999           
         H9        1.0000    0.11704   0.23110   0.74570   Biso      1.000     H          0.12049100000000001           
         H10       1.0000    0.48144   0.26850   0.93450   Biso      1.000     H          0.10723800000000001           
         H11       1.0000    0.55244   0.05420   0.73240   Biso      1.000     H          0.113673  
         H12       1.0000    0.21910   0.26760   0.32180   Biso      1.000     H          0.11338499999999999           
         O1        1.0000    0.78573   0.00080   0.44320   Biso      1.000     O          -0.605482           
         O2        1.0000    0.33307   0.80060   0.38800   Biso      1.000     O          -0.696132           
         O3        1.0000    0.99973   0.61200   0.41260   Biso      1.000     O          -0.695616           
         O4        1.0000    0.99525   0.91310   0.40660   Biso      1.000     O          -0.7218640000000001           
         O5        1.0000    0.53767   0.82530   0.48460   Biso      1.000     O          -0.669766           
         O6        1.0000    0.20433   0.51540   0.34070   Biso      1.000     O          -0.669331           
         O7        1.0000    0.32859   0.49350   0.08690   Biso      1.000     O          -0.722304           
         O8        1.0000    0.45240   0.55680   0.55760   Biso      1.000     O          -0.6058899999999999           
         O9        1.0000    0.66640   0.58740   0.19940   Biso      1.000     O          -0.695412           
         O10       1.0000    0.87100   0.65930   0.17470   Biso      1.000     O          -0.669375           
         O11       1.0000    0.11907   0.44240   0.99920   Biso      1.000     O          -0.606614           
         O12       1.0000    0.66192   0.59340   0.50650   Biso      1.000     O          -0.722276           
         Sr1       1.0000    0.79016   0.76522   0.45353   Biso      1.000     Sr          1.484325  
         Sr2       1.0000    0.45682   0.54647   0.31169   Biso      1.000     Sr          1.484346  
         Sr3       1.0000    0.12349   0.68831   0.23478   Biso      1.000     Sr          1.484869 