
##########################################################################
#               Crystallographic Information Format file
#               Produced by PyCifRW module
#
#  This is a CIF file.  CIF has been adopted by the International
#  Union of Crystallography as the standard for data archiving and
#  transmission.
#
#  For information on this file format, follow the CIF links at
#  http://www.iucr.org
##########################################################################

data_image0

_cell_length_a                          9.8731
_cell_length_b                          10.6396
_cell_length_c                          10.6396
_cell_angle_alpha                       120
_cell_angle_beta                        90
_cell_angle_gamma                       90
_symmetry_space_group_name_H-M          'P 1'
_symmetry_int_tables_number             1
loop_
  _symmetry_equiv_pos_as_xyz
         'x, y, z' 
loop_
  _atom_site_label
  _atom_site_occupancy
  _atom_site_fract_x
  _atom_site_fract_y
  _atom_site_fract_z
  _atom_site_thermal_displace_type
  _atom_site_B_iso_or_equiv
  _atom_site_type_symbol
  _atom_site_charge
         C1        1.0000    0.52227   0.26700   0.35830   Biso      1.000     C          -0.10316099999999999          
         C2        1.0000    0.07220   0.56020   0.93310   Biso      1.000     C          -0.109546           
         C3        1.0000    0.56867   0.50910   0.38070   Biso      1.000     C          0.649412  
         C4        1.0000    0.61037   0.38260   0.39520   Biso      1.000     C          -0.025854000000000002         
         C5        1.0000    0.56307   0.14740   0.36920   Biso      1.000     C          -0.12649100000000002          
         C6        1.0000    0.69157   0.13880   0.41330   Biso      1.000     C          -0.014466           
         C7        1.0000    0.73947   0.00910   0.42270   Biso      1.000     C          0.609006  
         C8        1.0000    0.77957   0.25330   0.44890   Biso      1.000     C          -0.1033   
         C9        1.0000    0.11290   0.55110   0.80440   Biso      1.000     C          -0.10281900000000001          
         C10       1.0000    0.73887   0.37290   0.43980   Biso      1.000     C          -0.10828099999999999          
         C11       1.0000    0.27703   0.01260   0.61740   Biso      1.000     C          -0.02504  
         C12       1.0000    0.18893   0.09130   0.73300   Biso      1.000     C          -0.103907           
         C13       1.0000    0.22973   0.22180   0.85260   Biso      1.000     C          -0.124672           
         C14       1.0000    0.35823   0.27450   0.86120   Biso      1.000     C          -0.015025           
         C15       1.0000    0.40613   0.41360   0.99090   Biso      1.000     C          0.6084430000000001  
         C16       1.0000    0.44623   0.19560   0.74670   Biso      1.000     C          -0.104696           
         C17       1.0000    0.40553   0.06690   0.62710   Biso      1.000     C          -0.10802  
         C18       1.0000    0.23533   0.87160   0.49090   Biso      1.000     C          0.647965  
         C19       1.0000    0.02490   0.58670   0.72550   Biso      1.000     C          -0.014772           
         C20       1.0000    0.07280   0.57730   0.58640   Biso      1.000     C          0.6082069999999999  
         C21       1.0000    0.85560   0.64170   0.90870   Biso      1.000     C          -0.102915           
         C22       1.0000    0.94370   0.60480   0.98740   Biso      1.000     C          -0.027007           
         C23       1.0000    0.90200   0.61930   0.12840   Biso      1.000     C          0.65075   
         C24       1.0000    0.89640   0.63080   0.77820   Biso      1.000     C          -0.125807           
         H1        1.0000    0.86707   0.24960   0.47930   Biso      1.000     H          0.119671  
         H2        1.0000    0.83560   0.65390   0.72610   Biso      1.000     H          0.10688099999999999           
         H3        1.0000    0.20040   0.52070   0.77030   Biso      1.000     H          0.119626  
         H4        1.0000    0.13310   0.53570   0.98410   Biso      1.000     H          0.107226  
         H5        1.0000    0.43527   0.26960   0.32610   Biso      1.000     H          0.11084100000000001           
         H6        1.0000    0.50227   0.07220   0.34610   Biso      1.000     H          0.10744100000000001           
         H7        1.0000    0.10193   0.05650   0.73040   Biso      1.000     H          0.11080899999999999           
         H8        1.0000    0.76860   0.67390   0.94350   Biso      1.000     H          0.11122   
         H9        1.0000    0.16893   0.27390   0.92780   Biso      1.000     H          0.10678800000000001           
         H10       1.0000    0.53373   0.22970   0.75040   Biso      1.000     H          0.12029200000000001           
         H11       1.0000    0.46643   0.01590   0.55160   Biso      1.000     H          0.10659500000000001           
         H12       1.0000    0.79977   0.44840   0.46430   Biso      1.000     H          0.106359  
         O1        1.0000    0.65607   0.91290   0.40480   Biso      1.000     O          -0.712418           
         O2        1.0000    0.32183   0.79900   0.39370   Biso      1.000     O          -0.705377           
         O3        1.0000    0.65517   0.60630   0.40530   Biso      1.000     O          -0.705608           
         O4        1.0000    0.86187   0.00340   0.44990   Biso      1.000     O          -0.62233  
         O5        1.0000    0.11823   0.82710   0.48540   Biso      1.000     O          -0.6677850000000001           
         O6        1.0000    0.45157   0.51460   0.34170   Biso      1.000     O          -0.66884  
         O7        1.0000    0.52853   0.44650   0.99660   Biso      1.000     O          -0.621963           
         O8        1.0000    0.98940   0.59520   0.50810   Biso      1.000     O          -0.71195  
         O9        1.0000    0.98850   0.59470   0.20100   Biso      1.000     O          -0.706266           
         O10       1.0000    0.78490   0.65830   0.17290   Biso      1.000     O          -0.669079           
         O11       1.0000    0.32273   0.49190   0.08710   Biso      1.000     O          -0.712275           
         O12       1.0000    0.19520   0.55010   0.55350   Biso      1.000     O          -0.621938           
         Sr1       1.0000    0.19653   0.54632   0.31197   Biso      1.000     Sr          1.487997  
         Sr2       1.0000    0.52987   0.68803   0.23435   Biso      1.000     Sr          1.4878799999999999  
         Sr3       1.0000    0.86320   0.76565   0.45368   Biso      1.000     Sr          1.488204 