
##########################################################################
#               Crystallographic Information Format file
#               Produced by PyCifRW module
#
#  This is a CIF file.  CIF has been adopted by the International
#  Union of Crystallography as the standard for data archiving and
#  transmission.
#
#  For information on this file format, follow the CIF links at
#  http://www.iucr.org
##########################################################################

data_image0

_cell_length_a                          6.897
_cell_length_b                          12.1864
_cell_length_c                          18.516
_cell_angle_alpha                       90
_cell_angle_beta                        90
_cell_angle_gamma                       90
_symmetry_space_group_name_H-M          'P 1'
_symmetry_int_tables_number             1
loop_
  _symmetry_equiv_pos_as_xyz
         'x, y, z' 
loop_
  _atom_site_label
  _atom_site_occupancy
  _atom_site_fract_x
  _atom_site_fract_y
  _atom_site_fract_z
  _atom_site_thermal_displace_type
  _atom_site_B_iso_or_equiv
  _atom_site_type_symbol
  _atom_site_charge
         C1        1.0000    0.42220   0.77310   0.23490   Biso      1.000     C          -0.102676           
         C2        1.0000    0.92220   0.22690   0.76510   Biso      1.000     C          -0.102676           
         C3        1.0000    0.07710   0.32120   0.19720   Biso      1.000     C          -0.118217           
         C4        1.0000    0.07780   0.27310   0.26510   Biso      1.000     C          -0.102676           
         C5        1.0000    0.42290   0.82120   0.30280   Biso      1.000     C          -0.118217           
         C6        1.0000    0.57710   0.67880   0.80280   Biso      1.000     C          -0.118217           
         C7        1.0000    0.57780   0.72690   0.73490   Biso      1.000     C          -0.102677           
         C8        1.0000    0.25000   0.89920   0.41070   Biso      1.000     C          0.654824  
         C9        1.0000    0.25000   0.84510   0.33750   Biso      1.000     C          -0.039606           
         C10       1.0000    0.25000   0.69940   0.12560   Biso      1.000     C          0.5779770000000001  
         C11       1.0000    0.25000   0.74850   0.20000   Biso      1.000     C          0.006823999999999999          
         C12       1.0000    0.42220   0.27310   0.26510   Biso      1.000     C          -0.102676           
         C13       1.0000    0.75000   0.60080   0.91070   Biso      1.000     C          0.654824  
         C14       1.0000    0.75000   0.80060   0.62560   Biso      1.000     C          0.5779770000000001  
         C15       1.0000    0.75000   0.75150   0.70000   Biso      1.000     C          0.006823999999999999          
         C16       1.0000    0.75000   0.10080   0.58930   Biso      1.000     C          0.654824  
         C17       1.0000    0.75000   0.15490   0.66250   Biso      1.000     C          -0.039606999999999996         
         C18       1.0000    0.75000   0.30060   0.87440   Biso      1.000     C          0.5779770000000001  
         C19       1.0000    0.75000   0.25150   0.80000   Biso      1.000     C          0.006823999999999999          
         C20       1.0000    0.25000   0.39920   0.08930   Biso      1.000     C          0.654824  
         C21       1.0000    0.25000   0.34510   0.16250   Biso      1.000     C          -0.039606           
         C22       1.0000    0.25000   0.19940   0.37440   Biso      1.000     C          0.5779770000000001  
         C23       1.0000    0.25000   0.24850   0.30000   Biso      1.000     C          0.006823999999999999          
         C24       1.0000    0.75000   0.65490   0.83750   Biso      1.000     C          -0.039606           
         C25       1.0000    0.42290   0.32120   0.19720   Biso      1.000     C          -0.118216           
         C26       1.0000    0.92290   0.17880   0.69720   Biso      1.000     C          -0.118216           
         C27       1.0000    0.57710   0.17880   0.69720   Biso      1.000     C          -0.118216           
         C28       1.0000    0.92220   0.72690   0.73490   Biso      1.000     C          -0.102676           
         C29       1.0000    0.92290   0.67880   0.80280   Biso      1.000     C          -0.118217           
         C30       1.0000    0.07780   0.77310   0.23490   Biso      1.000     C          -0.102676           
         C31       1.0000    0.07710   0.82120   0.30280   Biso      1.000     C          -0.118216           
         C32       1.0000    0.57780   0.22690   0.76510   Biso      1.000     C          -0.102676           
         H1        1.0000    0.95730   0.83790   0.32570   Biso      1.000     H          0.099096  
         H2        1.0000    0.95810   0.75680   0.21190   Biso      1.000     H          0.124294  
         H3        1.0000    0.04270   0.66210   0.82570   Biso      1.000     H          0.099096  
         H4        1.0000    0.04190   0.74320   0.71190   Biso      1.000     H          0.124294  
         H5        1.0000    0.45730   0.16210   0.67430   Biso      1.000     H          0.099096  
         H6        1.0000    0.45810   0.24320   0.78810   Biso      1.000     H          0.124294  
         H7        1.0000    0.54270   0.33790   0.17430   Biso      1.000     H          0.099096  
         H8        1.0000    0.04270   0.16210   0.67430   Biso      1.000     H          0.099096  
         H9        1.0000    0.54190   0.25680   0.28810   Biso      1.000     H          0.124294  
         H10       1.0000    0.95730   0.33790   0.17430   Biso      1.000     H          0.099096  
         H11       1.0000    0.95810   0.25680   0.28810   Biso      1.000     H          0.124293  
         H12       1.0000    0.54270   0.83790   0.32570   Biso      1.000     H          0.099096  
         H13       1.0000    0.54190   0.75680   0.21190   Biso      1.000     H          0.124293  
         H14       1.0000    0.45730   0.66210   0.82570   Biso      1.000     H          0.099096  
         H15       1.0000    0.45810   0.74320   0.71190   Biso      1.000     H          0.124293  
         H16       1.0000    0.04190   0.24320   0.78810   Biso      1.000     H          0.124293  
         O1        1.0000    0.09060   0.42340   0.06054   Biso      1.000     O          -0.697861           
         O2        1.0000    0.40940   0.42340   0.06054   Biso      1.000     O          -0.697861           
         O3        1.0000    0.09040   0.18030   0.40450   Biso      1.000     O          -0.656482           
         O4        1.0000    0.40940   0.92340   0.43946   Biso      1.000     O          -0.697861           
         O5        1.0000    0.40960   0.68030   0.09550   Biso      1.000     O          -0.656482           
         O6        1.0000    0.90960   0.31970   0.90450   Biso      1.000     O          -0.656482           
         O7        1.0000    0.90940   0.07660   0.56054   Biso      1.000     O          -0.697861           
         O8        1.0000    0.40960   0.18030   0.40450   Biso      1.000     O          -0.656482           
         O9        1.0000    0.59040   0.31970   0.90450   Biso      1.000     O          -0.656482           
         O10       1.0000    0.59040   0.81970   0.59550   Biso      1.000     O          -0.656482           
         O11       1.0000    0.90960   0.81970   0.59550   Biso      1.000     O          -0.656482           
         O12       1.0000    0.90940   0.57660   0.93946   Biso      1.000     O          -0.697861           
         O13       1.0000    0.09040   0.68030   0.09550   Biso      1.000     O          -0.656482           
         O14       1.0000    0.09060   0.92340   0.43946   Biso      1.000     O          -0.697861           
         O15       1.0000    0.59060   0.57660   0.93946   Biso      1.000     O          -0.697861           
         O16       1.0000    0.59060   0.07660   0.56054   Biso      1.000     O          -0.697861           
         Sr1       1.0000    0.25000   0.58464   0.98236   Biso      1.000     Sr          1.503673  
         Sr2       1.0000    0.75000   0.91536   0.48236   Biso      1.000     Sr          1.503673  
         Sr3       1.0000    0.75000   0.41536   0.01764   Biso      1.000     Sr          1.503673  
         Sr4       1.0000    0.25000   0.08464   0.51764   Biso      1.000     Sr          1.503673 