
##########################################################################
#               Crystallographic Information Format file
#               Produced by PyCifRW module
#
#  This is a CIF file.  CIF has been adopted by the International
#  Union of Crystallography as the standard for data archiving and
#  transmission.
#
#  For information on this file format, follow the CIF links at
#  http://www.iucr.org
##########################################################################

data_image0

_cell_length_a                          9.8417
_cell_length_b                          10.6202
_cell_length_c                          10.6202
_cell_angle_alpha                       120
_cell_angle_beta                        90
_cell_angle_gamma                       90
_symmetry_space_group_name_H-M          'P 1'
_symmetry_int_tables_number             1
loop_
  _symmetry_equiv_pos_as_xyz
         'x, y, z' 
loop_
  _atom_site_label
  _atom_site_occupancy
  _atom_site_fract_x
  _atom_site_fract_y
  _atom_site_fract_z
  _atom_site_thermal_displace_type
  _atom_site_B_iso_or_equiv
  _atom_site_type_symbol
  _atom_site_charge
         C1        1.0000    0.95767   0.55940   0.62620   Biso      1.000     C          -0.110849           
         C2        1.0000    0.50800   0.26570   0.90790   Biso      1.000     C          -0.10678699999999999          
         C3        1.0000    0.12847   0.61870   0.48960   Biso      1.000     C          0.643372  
         C4        1.0000    0.08547   0.60500   0.61930   Biso      1.000     C          -0.022549           
         C5        1.0000    0.91607   0.55030   0.74590   Biso      1.000     C          -0.102256           
         C6        1.0000    0.00447   0.58690   0.86130   Biso      1.000     C          -0.018175999999999998         
         C7        1.0000    0.95487   0.57800   0.99060   Biso      1.000     C          0.606919  
         C8        1.0000    0.13357   0.63300   0.85390   Biso      1.000     C          -0.12057899999999999          
         C9        1.0000    0.46690   0.14610   0.77910   Biso      1.000     C          -0.12069  
         C10       1.0000    0.17467   0.64220   0.73430   Biso      1.000     C          -0.1063   
         C11       1.0000    0.75213   0.01430   0.39500   Biso      1.000     C          -0.021439           
         C12       1.0000    0.62433   0.06680   0.44060   Biso      1.000     C          -0.11223699999999999          
         C13       1.0000    0.58273   0.19560   0.44970   Biso      1.000     C          -0.101275           
         C14       1.0000    0.67113   0.27440   0.41310   Biso      1.000     C          -0.018638           
         C15       1.0000    0.62153   0.41260   0.42200   Biso      1.000     C          0.606363  
         C16       1.0000    0.80023   0.22090   0.36700   Biso      1.000     C          -0.120575           
         C17       1.0000    0.84133   0.09210   0.35780   Biso      1.000     C          -0.10706199999999999          
         C18       1.0000    0.79513   0.87090   0.38130   Biso      1.000     C          0.644278  
         C19       1.0000    0.33780   0.13870   0.72560   Biso      1.000     C          -0.017542           
         C20       1.0000    0.28820   0.00940   0.58740   Biso      1.000     C          0.6054069999999999  
         C21       1.0000    0.29100   0.37380   0.93320   Biso      1.000     C          -0.110297           
         C22       1.0000    0.41880   0.38070   0.98570   Biso      1.000     C          -0.022933000000000002         
         C23       1.0000    0.46180   0.51040   0.12910   Biso      1.000     C          0.644339  
         C24       1.0000    0.24940   0.25410   0.80440   Biso      1.000     C          -0.10180399999999999          
         H1        1.0000    0.19387   0.65820   0.93030   Biso      1.000     H          0.10594500000000001           
         H2        1.0000    0.16180   0.25080   0.77030   Biso      1.000     H          0.11951099999999999           
         H3        1.0000    0.52720   0.06970   0.72790   Biso      1.000     H          0.10601300000000001           
         H4        1.0000    0.59550   0.26930   0.94260   Biso      1.000     H          0.11221099999999999           
         H5        1.0000    0.89757   0.53410   0.54960   Biso      1.000     H          0.108923  
         H6        1.0000    0.82847   0.51950   0.74920   Biso      1.000     H          0.120018  
         H7        1.0000    0.56423   0.01550   0.46590   Biso      1.000     H          0.109472  
         H8        1.0000    0.23090   0.45040   0.98450   Biso      1.000     H          0.10878499999999999           
         H9        1.0000    0.49513   0.22970   0.48050   Biso      1.000     H          0.11951500000000001           
         H10       1.0000    0.86053   0.27210   0.34180   Biso      1.000     H          0.10618399999999999           
         H11       1.0000    0.92883   0.05740   0.32670   Biso      1.000     H          0.11246800000000001           
         H12       1.0000    0.26217   0.67330   0.73070   Biso      1.000     H          0.112121  
         O1        1.0000    0.83307   0.54980   0.99620   Biso      1.000     O          -0.6146689999999999           
         O2        1.0000    0.91273   0.82620   0.34070   Biso      1.000     O          -0.669545           
         O3        1.0000    0.24607   0.65930   0.48550   Biso      1.000     O          -0.669033           
         O4        1.0000    0.04017   0.59350   0.08650   Biso      1.000     O          -0.719911           
         O5        1.0000    0.70823   0.79950   0.40710   Biso      1.000     O          -0.699525           
         O6        1.0000    0.04157   0.59290   0.39240   Biso      1.000     O          -0.698997           
         O7        1.0000    0.70683   0.49300   0.40650   Biso      1.000     O          -0.720372           
         O8        1.0000    0.16640   0.00380   0.55360   Biso      1.000     O          -0.613849           
         O9        1.0000    0.57940   0.51450   0.17380   Biso      1.000     O          -0.669515           
         O10       1.0000    0.37490   0.60760   0.20050   Biso      1.000     O          -0.6995560000000001           
         O11       1.0000    0.49973   0.44640   0.45020   Biso      1.000     O          -0.614013           
         O12       1.0000    0.37350   0.91350   0.50700   Biso      1.000     O          -0.7196359999999999           
         Sr1       1.0000    0.83343   0.54635   0.23465   Biso      1.000     Sr          1.486225  
         Sr2       1.0000    0.16677   0.76535   0.31170   Biso      1.000     Sr          1.485939  
         Sr3       1.0000    0.50010   0.68830   0.45365   Biso      1.000     Sr          1.4865979999999999 