
##########################################################################
#               Crystallographic Information Format file
#               Produced by PyCifRW module
#
#  This is a CIF file.  CIF has been adopted by the International
#  Union of Crystallography as the standard for data archiving and
#  transmission.
#
#  For information on this file format, follow the CIF links at
#  http://www.iucr.org
##########################################################################

data_image0

_cell_length_a                          9.8289
_cell_length_b                          10.6123
_cell_length_c                          10.6123
_cell_angle_alpha                       120
_cell_angle_beta                        90
_cell_angle_gamma                       90
_symmetry_space_group_name_H-M          'P 1'
_symmetry_int_tables_number             1
loop_
  _symmetry_equiv_pos_as_xyz
         'x, y, z' 
loop_
  _atom_site_label
  _atom_site_occupancy
  _atom_site_fract_x
  _atom_site_fract_y
  _atom_site_fract_z
  _atom_site_thermal_displace_type
  _atom_site_B_iso_or_equiv
  _atom_site_type_symbol
  _atom_site_charge
         C1        1.0000    0.62347   0.59990   0.89220   Biso      1.000     C          -0.112497           
         C2        1.0000    0.17480   0.02400   0.59850   Biso      1.000     C          -0.10438199999999999          
         C3        1.0000    0.79497   0.79510   0.95090   Biso      1.000     C          0.643249  
         C4        1.0000    0.75287   0.65220   0.93810   Biso      1.000     C          -0.022524000000000002         
         C5        1.0000    0.58227   0.47070   0.88320   Biso      1.000     C          -0.101087           
         C6        1.0000    0.66997   0.39220   0.92020   Biso      1.000     C          -0.017315999999999998         
         C7        1.0000    0.62097   0.25380   0.91150   Biso      1.000     C          0.6057130000000001  
         C8        1.0000    0.79997   0.44600   0.96700   Biso      1.000     C          -0.12369300000000001          
         C9        1.0000    0.13330   0.03300   0.47900   Biso      1.000     C          -0.123366           
         C10       1.0000    0.84147   0.57450   0.97600   Biso      1.000     C          -0.10365799999999999          
         C11       1.0000    0.41953   0.28590   0.34780   Biso      1.000     C          -0.020224000000000002         
         C12       1.0000    0.29013   0.29230   0.40010   Biso      1.000     C          -0.112631           
         C13       1.0000    0.24893   0.41250   0.52930   Biso      1.000     C          -0.10093400000000001          
         C14       1.0000    0.33663   0.52800   0.60780   Biso      1.000     C          -0.017335           
         C15       1.0000    0.28763   0.65770   0.74620   Biso      1.000     C          0.606503  
         C16       1.0000    0.46663   0.52100   0.55400   Biso      1.000     C          -0.12331199999999999          
         C17       1.0000    0.50813   0.40150   0.42550   Biso      1.000     C          -0.104946           
         C18       1.0000    0.46163   0.15580   0.20490   Biso      1.000     C          0.641173  
         C19       1.0000    0.00330   0.07980   0.47200   Biso      1.000     C          -0.018376           
         C20       1.0000    0.95430   0.08850   0.34230   Biso      1.000     C          0.60787   
         C21       1.0000    0.95680   0.10780   0.70770   Biso      1.000     C          -0.112419           
         C22       1.0000    0.08620   0.06190   0.71410   Biso      1.000     C          -0.021997           
         C23       1.0000    0.12830   0.04910   0.84420   Biso      1.000     C          0.641048  
         C24       1.0000    0.91560   0.11680   0.58750   Biso      1.000     C          -0.099827           
         H1        1.0000    0.85997   0.39480   0.99260   Biso      1.000     H          0.106905  
         H2        1.0000    0.82790   0.14810   0.58440   Biso      1.000     H          0.118823  
         H3        1.0000    0.19330   0.00740   0.40220   Biso      1.000     H          0.106608  
         H4        1.0000    0.26230   0.99250   0.60180   Biso      1.000     H          0.11213800000000002           
         H5        1.0000    0.56337   0.65140   0.86700   Biso      1.000     H          0.110419  
         H6        1.0000    0.49457   0.43630   0.85190   Biso      1.000     H          0.11921   
         H7        1.0000    0.23003   0.21560   0.34860   Biso      1.000     H          0.109797  
         H8        1.0000    0.89670   0.13300   0.78440   Biso      1.000     H          0.109919  
         H9        1.0000    0.16123   0.41560   0.56370   Biso      1.000     H          0.11875   
         H10       1.0000    0.52663   0.59780   0.60520   Biso      1.000     H          0.106445  
         H11       1.0000    0.59563   0.39820   0.39070   Biso      1.000     H          0.11237899999999999           
         H12       1.0000    0.92897   0.60930   0.00750   Biso      1.000     H          0.111661  
         O1        1.0000    0.49857   0.22130   0.88540   Biso      1.000     O          -0.614405           
         O2        1.0000    0.57943   0.15240   0.15950   Biso      1.000     O          -0.67102  
         O3        1.0000    0.91277   0.84050   0.99290   Biso      1.000     O          -0.671661           
         O4        1.0000    0.70627   0.17290   0.92590   Biso      1.000     O          -0.7172189999999999           
         O5        1.0000    0.37483   0.05820   0.13290   Biso      1.000     O          -0.697436           
         O6        1.0000    0.70817   0.86710   0.92530   Biso      1.000     O          -0.6981729999999999           
         O7        1.0000    0.37293   0.75300   0.82710   Biso      1.000     O          -0.717759           
         O8        1.0000    0.83190   0.11460   0.33590   Biso      1.000     O          -0.615444           
         O9        1.0000    0.24610   0.00710   0.84760   Biso      1.000     O          -0.670523           
         O10       1.0000    0.04150   0.07470   0.94180   Biso      1.000     O          -0.697164           
         O11       1.0000    0.16523   0.66410   0.77870   Biso      1.000     O          -0.614405           
         O12       1.0000    0.03960   0.07410   0.24700   Biso      1.000     O          -0.718001           
         Sr1       1.0000    0.49998   0.97822   0.87961   Biso      1.000     Sr          1.485013  
         Sr2       1.0000    0.83332   0.12039   0.09861   Biso      1.000     Sr          1.485252  
         Sr3       1.0000    0.16665   0.90139   0.02178   Biso      1.000     Sr          1.4848569999999999 