
##########################################################################
#               Crystallographic Information Format file
#               Produced by PyCifRW module
#
#  This is a CIF file.  CIF has been adopted by the International
#  Union of Crystallography as the standard for data archiving and
#  transmission.
#
#  For information on this file format, follow the CIF links at
#  http://www.iucr.org
##########################################################################

data_image0

_cell_length_a                          7.875
_cell_length_b                          13.898
_cell_length_c                          13.91
_cell_angle_alpha                       107.624
_cell_angle_beta                        97.416
_cell_angle_gamma                       97.31
_symmetry_space_group_name_H-M          'P 1'
_symmetry_int_tables_number             1
loop_
  _symmetry_equiv_pos_as_xyz
         'x, y, z' 
loop_
  _atom_site_label
  _atom_site_occupancy
  _atom_site_fract_x
  _atom_site_fract_y
  _atom_site_fract_z
  _atom_site_thermal_displace_type
  _atom_site_B_iso_or_equiv
  _atom_site_type_symbol
  _atom_site_charge
         C1        1.0000    0.02950   0.37320   0.12640   Biso      1.000     C          0.621805  
         C2        1.0000    0.21800   0.48660   0.59520   Biso      1.000     C          -0.08470499999999999          
         C3        1.0000    0.78200   0.51340   0.40480   Biso      1.000     C          -0.08470499999999999          
         C4        1.0000    0.48490   0.62520   0.87650   Biso      1.000     C          -0.073964           
         C5        1.0000    0.02740   0.17300   0.88890   Biso      1.000     C          0.6523720000000001  
         C6        1.0000    0.72000   0.49550   0.48700   Biso      1.000     C          -0.12623499999999999          
         C7        1.0000    0.45600   0.68970   0.81910   Biso      1.000     C          -0.10591800000000001          
         C8        1.0000    0.87970   0.94910   0.74760   Biso      1.000     C          0.543674  
         C9        1.0000    0.97050   0.62680   0.87360   Biso      1.000     C          0.621804  
         C10       1.0000    0.28000   0.50450   0.51300   Biso      1.000     C          -0.12623499999999999          
         C11       1.0000    0.02510   0.38830   0.67260   Biso      1.000     C          0.661514  
         C12       1.0000    0.78400   0.90630   0.01350   Biso      1.000     C          -0.047205000000000004         
         C13       1.0000    0.67300   0.52640   0.95200   Biso      1.000     C          0.573526  
         C14       1.0000    0.21600   0.09370   0.98650   Biso      1.000     C          -0.047205000000000004         
         C15       1.0000    0.02520   0.33790   0.47900   Biso      1.000     C          0.083239  
         C16       1.0000    0.97360   0.02020   0.16190   Biso      1.000     C          0.09883099999999999           
         C17       1.0000    0.12030   0.05090   0.25240   Biso      1.000     C          0.543674  
         C18       1.0000    0.97480   0.66210   0.52100   Biso      1.000     C          0.083239  
         C19       1.0000    0.22200   0.91740   0.93610   Biso      1.000     C          0.091143  
         C20       1.0000    0.22000   0.43550   0.41800   Biso      1.000     C          0.09071699999999999           
         C21       1.0000    0.02640   0.97980   0.83810   Biso      1.000     C          0.09883099999999999           
         C22       1.0000    0.35050   0.39880   0.10500   Biso      1.000     C          -0.082242           
         C23       1.0000    0.32700   0.47360   0.04800   Biso      1.000     C          0.573526  
         C24       1.0000    0.54400   0.31030   0.18090   Biso      1.000     C          -0.105919           
         C25       1.0000    0.08750   0.07970   0.90430   Biso      1.000     C          -0.078981           
         C26       1.0000    0.12100   0.75270   0.55090   Biso      1.000     C          0.559526  
         C27       1.0000    0.77800   0.08260   0.06390   Biso      1.000     C          0.091143  
         C28       1.0000    0.78000   0.56450   0.58200   Biso      1.000     C          0.09071699999999999           
         C29       1.0000    0.08730   0.40340   0.57840   Biso      1.000     C          -0.066885           
         C30       1.0000    0.91270   0.59660   0.42160   Biso      1.000     C          -0.066885           
         C31       1.0000    0.97490   0.61170   0.32740   Biso      1.000     C          0.661514  
         C32       1.0000    0.28100   0.01370   0.00420   Biso      1.000     C          -0.133741           
         C33       1.0000    0.59160   0.73030   0.78030   Biso      1.000     C          0.106325  
         C34       1.0000    0.97260   0.82700   0.11110   Biso      1.000     C          0.6523720000000001  
         C35       1.0000    0.21490   0.35820   0.14390   Biso      1.000     C          0.041415  
         C36       1.0000    0.87900   0.24730   0.44910   Biso      1.000     C          0.559526  
         C37       1.0000    0.91250   0.92030   0.09570   Biso      1.000     C          -0.078981           
         C38       1.0000    0.64950   0.60120   0.89500   Biso      1.000     C          -0.082242           
         C39       1.0000    0.51510   0.37480   0.12350   Biso      1.000     C          -0.073963           
         C40       1.0000    0.71900   0.98630   0.99580   Biso      1.000     C          -0.133741           
         C41       1.0000    0.40840   0.26970   0.21970   Biso      1.000     C          0.106325  
         C42       1.0000    0.78510   0.64180   0.85610   Biso      1.000     C          0.041415  
         H1        1.0000    0.72000   0.82400   0.97500   Biso      1.000     H          0.068538  
         H2        1.0000    0.63490   0.97570   0.93830   Biso      1.000     H          0.12792699999999999           
         H3        1.0000    0.39410   0.59800   0.90250   Biso      1.000     H          0.13626   
         H4        1.0000    0.42770   0.22650   0.25810   Biso      1.000     H          0.133626  
         H5        1.0000    0.28000   0.17600   0.02500   Biso      1.000     H          0.068538  
         H6        1.0000    0.73200   0.55490   0.63690   Biso      1.000     H          0.083598  
         H7        1.0000    0.36510   0.02430   0.06170   Biso      1.000     H          0.12792699999999999           
         H8        1.0000    0.26950   0.86250   0.94600   Biso      1.000     H          0.094161  
         H9        1.0000    0.73050   0.13750   0.05400   Biso      1.000     H          0.094161  
         H10       1.0000    0.26330   0.53000   0.66150   Biso      1.000     H          0.108481  
         H11       1.0000    0.65410   0.29430   0.19320   Biso      1.000     H          0.130137  
         H12       1.0000    0.73670   0.47000   0.33850   Biso      1.000     H          0.108481  
         H13       1.0000    0.36170   0.56260   0.52240   Biso      1.000     H          0.12586   
         H14       1.0000    0.26800   0.44510   0.36310   Biso      1.000     H          0.083598  
         H15       1.0000    0.63830   0.43740   0.47760   Biso      1.000     H          0.12586   
         H16       1.0000    0.60590   0.40200   0.09750   Biso      1.000     H          0.13626   
         H17       1.0000    0.34590   0.70570   0.80680   Biso      1.000     H          0.130137  
         H18       1.0000    0.57230   0.77350   0.74190   Biso      1.000     H          0.133626  
         N1        1.0000    0.09600   0.35500   0.40060   Biso      1.000     N          -0.22598800000000002          
         N2        1.0000    0.24380   0.29360   0.20120   Biso      1.000     N          -0.227214           
         N3        1.0000    0.90570   0.09970   0.14550   Biso      1.000     N          -0.231623           
         N4        1.0000    0.75620   0.70640   0.79880   Biso      1.000     N          -0.227214           
         N5        1.0000    0.09430   0.90030   0.85450   Biso      1.000     N          -0.231623           
         N6        1.0000    0.90400   0.64500   0.59940   Biso      1.000     N          -0.22598800000000002          
         O1        1.0000    0.70370   0.55680   0.05680   Biso      1.000     O          -0.628817           
         O2        1.0000    0.00100   0.42690   0.07360   Biso      1.000     O          -0.635048           
         O3        1.0000    0.29630   0.44320   0.94320   Biso      1.000     O          -0.628817           
         O4        1.0000    0.99900   0.57310   0.92640   Biso      1.000     O          -0.635048           
         O5        1.0000    0.89290   0.20020   0.91950   Biso      1.000     O          -0.598548           
         O6        1.0000    0.16830   0.79540   0.64520   Biso      1.000     O          -0.5683600000000001           
         O7        1.0000    0.13080   0.22550   0.85380   Biso      1.000     O          -0.754267           
         O8        1.0000    0.18870   0.98290   0.27370   Biso      1.000     O          -0.555246           
         O9        1.0000    0.06370   0.66360   0.82240   Biso      1.000     O          -0.504571           
         O10       1.0000    0.93630   0.33640   0.17760   Biso      1.000     O          -0.50457  
         O11       1.0000    0.10710   0.79980   0.08050   Biso      1.000     O          -0.598547           
         O12       1.0000    0.89280   0.41890   0.70050   Biso      1.000     O          -0.6064039999999999           
         O13       1.0000    0.83310   0.85460   0.70200   Biso      1.000     O          -0.561026           
         O14       1.0000    0.10720   0.58110   0.29950   Biso      1.000     O          -0.6064039999999999           
         O15       1.0000    0.81230   0.22690   0.51750   Biso      1.000     O          -0.553928           
         O16       1.0000    0.81130   0.01710   0.72630   Biso      1.000     O          -0.555246           
         O17       1.0000    0.83170   0.20460   0.35480   Biso      1.000     O          -0.5683600000000001           
         O18       1.0000    0.12900   0.35270   0.72440   Biso      1.000     O          -0.743538           
         O19       1.0000    0.86920   0.77450   0.14620   Biso      1.000     O          -0.754267           
         O20       1.0000    0.18770   0.77310   0.48250   Biso      1.000     O          -0.553928           
         O21       1.0000    0.33830   0.58240   0.08050   Biso      1.000     O          -0.744062           
         O22       1.0000    0.87100   0.64730   0.27560   Biso      1.000     O          -0.743538           
         O23       1.0000    0.66170   0.41760   0.91950   Biso      1.000     O          -0.744062           
         O24       1.0000    0.16690   0.14540   0.29800   Biso      1.000     O          -0.561026           
         Sr1       1.0000    0.60519   0.70340   0.20327   Biso      1.000     Sr          1.6346129999999999  
         Sr2       1.0000    0.04672   0.62629   0.12646   Biso      1.000     Sr          1.4392040000000001  
         Sr3       1.0000    0.39481   0.29660   0.79673   Biso      1.000     Sr          1.6346129999999999  
         Sr4       1.0000    0.95328   0.37371   0.87354   Biso      1.000     Sr          1.4392040000000001  
         Zn1       1.0000    0.99880   0.75918   0.74086   Biso      1.000     Zn          0.732024  
         Zn2       1.0000    0.00120   0.24082   0.25914   Biso      1.000     Zn          0.732024 