
##########################################################################
#               Crystallographic Information Format file
#               Produced by PyCifRW module
#
#  This is a CIF file.  CIF has been adopted by the International
#  Union of Crystallography as the standard for data archiving and
#  transmission.
#
#  For information on this file format, follow the CIF links at
#  http://www.iucr.org
##########################################################################

data_image0

_cell_length_a                          7.834
_cell_length_b                          13.782
_cell_length_c                          13.798
_cell_angle_alpha                       107.577
_cell_angle_beta                        97.328
_cell_angle_gamma                       97.034
_symmetry_space_group_name_H-M          'P 1'
_symmetry_int_tables_number             1
loop_
  _symmetry_equiv_pos_as_xyz
         'x, y, z' 
loop_
  _atom_site_label
  _atom_site_occupancy
  _atom_site_fract_x
  _atom_site_fract_y
  _atom_site_fract_z
  _atom_site_thermal_displace_type
  _atom_site_B_iso_or_equiv
  _atom_site_type_symbol
  _atom_site_charge
         C1        1.0000    0.87870   0.94610   0.74160   Biso      1.000     C          0.533096  
         C2        1.0000    0.96660   0.65740   0.52220   Biso      1.000     C          0.071688  
         C3        1.0000    0.03340   0.34260   0.47780   Biso      1.000     C          0.07168   
         C4        1.0000    0.03170   0.16980   0.88360   Biso      1.000     C          0.663964  
         C5        1.0000    0.11560   0.74680   0.55430   Biso      1.000     C          0.547063  
         C6        1.0000    0.48780   0.62860   0.87590   Biso      1.000     C          -0.097707           
         C7        1.0000    0.12130   0.05390   0.25840   Biso      1.000     C          0.533099  
         C8        1.0000    0.51220   0.37140   0.12410   Biso      1.000     C          -0.0977   
         C9        1.0000    0.21720   0.49280   0.59660   Biso      1.000     C          -0.085636           
         C10       1.0000    0.79400   0.09410   0.06880   Biso      1.000     C          0.088782  
         C11       1.0000    0.91130   0.92560   0.10180   Biso      1.000     C          -0.060843           
         C12       1.0000    0.97900   0.02570   0.16620   Biso      1.000     C          0.08427   
         C13       1.0000    0.71100   0.48960   0.48170   Biso      1.000     C          -0.126383           
         C14       1.0000    0.03150   0.37260   0.13290   Biso      1.000     C          0.608496  
         C15       1.0000    0.21690   0.08630   0.98070   Biso      1.000     C          -0.091858           
         C16       1.0000    0.96850   0.62740   0.86710   Biso      1.000     C          0.608499  
         C17       1.0000    0.72610   0.99770   0.00160   Biso      1.000     C          -0.121276           
         C18       1.0000    0.08820   0.40790   0.57870   Biso      1.000     C          -0.070329           
         C19       1.0000    0.78280   0.50720   0.40340   Biso      1.000     C          -0.085616           
         C20       1.0000    0.64000   0.60360   0.89400   Biso      1.000     C          -0.088578           
         C21       1.0000    0.59050   0.73430   0.78150   Biso      1.000     C          0.093536  
         C22       1.0000    0.36000   0.39640   0.10600   Biso      1.000     C          -0.088576           
         C23       1.0000    0.76800   0.56070   0.58000   Biso      1.000     C          0.093166  
         C24       1.0000    0.96830   0.83020   0.11640   Biso      1.000     C          0.663967  
         C25       1.0000    0.02100   0.97430   0.83380   Biso      1.000     C          0.084262  
         C26       1.0000    0.27390   0.00230   0.99840   Biso      1.000     C          -0.121269           
         C27       1.0000    0.45400   0.69690   0.81700   Biso      1.000     C          -0.098875           
         C28       1.0000    0.08870   0.07440   0.89820   Biso      1.000     C          -0.060831           
         C29       1.0000    0.91180   0.59210   0.42130   Biso      1.000     C          -0.070331           
         C30       1.0000    0.78310   0.91370   0.01930   Biso      1.000     C          -0.091844           
         C31       1.0000    0.78380   0.64640   0.85290   Biso      1.000     C          0.04221   
         C32       1.0000    0.67500   0.52860   0.95240   Biso      1.000     C          0.648313  
         C33       1.0000    0.02470   0.39250   0.67230   Biso      1.000     C          0.677159  
         C34       1.0000    0.88440   0.25320   0.44570   Biso      1.000     C          0.547064  
         C35       1.0000    0.40950   0.26570   0.21850   Biso      1.000     C          0.093535  
         C36       1.0000    0.97530   0.60750   0.32770   Biso      1.000     C          0.67716   
         C37       1.0000    0.23200   0.43930   0.42000   Biso      1.000     C          0.093161  
         C38       1.0000    0.20600   0.90590   0.93120   Biso      1.000     C          0.088794  
         C39       1.0000    0.28900   0.51040   0.51830   Biso      1.000     C          -0.12636  
         C40       1.0000    0.32500   0.47140   0.04760   Biso      1.000     C          0.648315  
         C41       1.0000    0.21620   0.35360   0.14710   Biso      1.000     C          0.042215  
         C42       1.0000    0.54600   0.30310   0.18300   Biso      1.000     C          -0.098874           
         H1        1.0000    0.37310   0.56820   0.52970   Biso      1.000     H          0.125802  
         H2        1.0000    0.28370   0.44950   0.36590   Biso      1.000     H          0.082108  
         H3        1.0000    0.26550   0.15230   0.02500   Biso      1.000     H          0.099547  
         H4        1.0000    0.65580   0.28600   0.19560   Biso      1.000     H          0.134955  
         H5        1.0000    0.25480   0.53820   0.66340   Biso      1.000     H          0.110554  
         H6        1.0000    0.74520   0.46180   0.33660   Biso      1.000     H          0.110552  
         H7        1.0000    0.71630   0.55050   0.63410   Biso      1.000     H          0.08211   
         H8        1.0000    0.57350   0.77910   0.74390   Biso      1.000     H          0.119352  
         H9        1.0000    0.35820   0.01070   0.05550   Biso      1.000     H          0.122997  
         H10       1.0000    0.34420   0.71400   0.80440   Biso      1.000     H          0.134953  
         H11       1.0000    0.64180   0.98930   0.94450   Biso      1.000     H          0.122995  
         H12       1.0000    0.60370   0.39860   0.09800   Biso      1.000     H          0.126697  
         H13       1.0000    0.75290   0.15110   0.05810   Biso      1.000     H          0.093055  
         H14       1.0000    0.62690   0.43180   0.47030   Biso      1.000     H          0.125803  
         H15       1.0000    0.24710   0.84890   0.94190   Biso      1.000     H          0.093056  
         H16       1.0000    0.42650   0.22090   0.25610   Biso      1.000     H          0.119357  
         H17       1.0000    0.39630   0.60140   0.90200   Biso      1.000     H          0.126695  
         H18       1.0000    0.73450   0.84770   0.97500   Biso      1.000     H          0.099548  
         N1        1.0000    0.11090   0.35940   0.40020   Biso      1.000     N          -0.20563  
         N2        1.0000    0.74890   0.71050   0.79740   Biso      1.000     N          -0.218621           
         N3        1.0000    0.25110   0.28950   0.20260   Biso      1.000     N          -0.218591           
         N4        1.0000    0.08100   0.89190   0.85080   Biso      1.000     N          -0.217264           
         N5        1.0000    0.91900   0.10810   0.14920   Biso      1.000     N          -0.217281           
         N6        1.0000    0.88910   0.64060   0.59980   Biso      1.000     N          -0.205616           
         Ni1       1.0000    0.97480   0.75517   0.73631   Biso      1.000     Ni          0.625479  
         Ni2       1.0000    0.02520   0.24483   0.26369   Biso      1.000     Ni          0.625488  
         O1        1.0000    0.16580   0.14660   0.30940   Biso      1.000     O          -0.497401           
         O2        1.0000    0.10070   0.80010   0.08390   Biso      1.000     O          -0.612371           
         O3        1.0000    0.93850   0.33980   0.18350   Biso      1.000     O          -0.474597           
         O4        1.0000    0.10840   0.58060   0.30060   Biso      1.000     O          -0.594063           
         O5        1.0000    0.89930   0.19990   0.91610   Biso      1.000     O          -0.612367           
         O6        1.0000    0.13210   0.35960   0.72640   Biso      1.000     O          -0.762085           
         O7        1.0000    0.86830   0.77950   0.15430   Biso      1.000     O          -0.75436  
         O8        1.0000    0.83420   0.85340   0.69060   Biso      1.000     O          -0.497358           
         O9        1.0000    0.18800   0.76990   0.48910   Biso      1.000     O          -0.532498           
         O10       1.0000    0.66400   0.43080   0.90780   Biso      1.000     O          -0.738386           
         O11       1.0000    0.99920   0.42610   0.07520   Biso      1.000     O          -0.681562           
         O12       1.0000    0.15960   0.78580   0.65190   Biso      1.000     O          -0.546213           
         O13       1.0000    0.29700   0.43860   0.94770   Biso      1.000     O          -0.663966           
         O14       1.0000    0.06150   0.66020   0.81650   Biso      1.000     O          -0.474583           
         O15       1.0000    0.81010   0.01780   0.72260   Biso      1.000     O          -0.555563           
         O16       1.0000    0.81200   0.23010   0.51090   Biso      1.000     O          -0.53248  
         O17       1.0000    0.00080   0.57390   0.92480   Biso      1.000     O          -0.68156  
         O18       1.0000    0.13170   0.22050   0.84570   Biso      1.000     O          -0.754358           
         O19       1.0000    0.33600   0.56920   0.09220   Biso      1.000     O          -0.738381           
         O20       1.0000    0.70300   0.56140   0.05230   Biso      1.000     O          -0.66397  
         O21       1.0000    0.86790   0.64040   0.27360   Biso      1.000     O          -0.762085           
         O22       1.0000    0.89160   0.41940   0.69940   Biso      1.000     O          -0.594063           
         O23       1.0000    0.18990   0.98220   0.27740   Biso      1.000     O          -0.555581           
         O24       1.0000    0.84040   0.21420   0.34810   Biso      1.000     O          -0.546161           
         Sr1       1.0000    0.60210   0.70232   0.20543   Biso      1.000     Sr          1.65447   
         Sr2       1.0000    0.04431   0.62649   0.12700   Biso      1.000     Sr          1.449182  
         Sr3       1.0000    0.39790   0.29768   0.79457   Biso      1.000     Sr          1.65447   
         Sr4       1.0000    0.95569   0.37351   0.87300   Biso      1.000     Sr          1.44918 