
##########################################################################
#               Crystallographic Information Format file
#               Produced by PyCifRW module
#
#  This is a CIF file.  CIF has been adopted by the International
#  Union of Crystallography as the standard for data archiving and
#  transmission.
#
#  For information on this file format, follow the CIF links at
#  http://www.iucr.org
##########################################################################

data_image0

_cell_length_a                          9.295
_cell_length_b                          9.295
_cell_length_c                          17.689
_cell_angle_alpha                       90
_cell_angle_beta                        90
_cell_angle_gamma                       120
_symmetry_space_group_name_H-M          'P 1'
_symmetry_int_tables_number             1
loop_
  _symmetry_equiv_pos_as_xyz
         'x, y, z' 
loop_
  _atom_site_label
  _atom_site_occupancy
  _atom_site_fract_x
  _atom_site_fract_y
  _atom_site_fract_z
  _atom_site_thermal_displace_type
  _atom_site_B_iso_or_equiv
  _atom_site_type_symbol
  _atom_site_charge
         C1        1.0000    0.81580   0.16020   0.10500   Biso      1.000     C          0.678701  
         C2        1.0000    0.18420   0.34440   0.89500   Biso      1.000     C          0.678717  
         C3        1.0000    0.09160   0.39720   0.94690   Biso      1.000     C          -0.195705           
         C4        1.0000    0.16020   0.81580   0.89500   Biso      1.000     C          0.678712  
         C5        1.0000    0.30560   0.90840   0.94690   Biso      1.000     C          -0.195704           
         C6        1.0000    0.65560   0.83980   0.60500   Biso      1.000     C          0.6786989999999999  
         C7        1.0000    0.60280   0.69440   0.55310   Biso      1.000     C          -0.195702           
         C8        1.0000    0.18420   0.34440   0.60500   Biso      1.000     C          0.678716  
         C9        1.0000    0.09160   0.39720   0.55310   Biso      1.000     C          -0.195702           
         C10       1.0000    0.16020   0.81580   0.60500   Biso      1.000     C          0.678703  
         C11       1.0000    0.30560   0.90840   0.55310   Biso      1.000     C          -0.19570099999999999          
         C12       1.0000    0.90840   0.30560   0.05310   Biso      1.000     C          -0.195705           
         C13       1.0000    0.83980   0.65560   0.10500   Biso      1.000     C          0.678713  
         C14       1.0000    0.69440   0.60280   0.05310   Biso      1.000     C          -0.195706           
         C15       1.0000    0.34440   0.18420   0.10500   Biso      1.000     C          0.678705  
         C16       1.0000    0.39720   0.09160   0.05310   Biso      1.000     C          -0.19570099999999999          
         C17       1.0000    0.81580   0.16020   0.39500   Biso      1.000     C          0.678696  
         C18       1.0000    0.90840   0.30560   0.44690   Biso      1.000     C          -0.195702           
         C19       1.0000    0.83980   0.65560   0.39500   Biso      1.000     C          0.678714  
         C20       1.0000    0.69440   0.60280   0.44690   Biso      1.000     C          -0.19570099999999999          
         C21       1.0000    0.34440   0.18420   0.39500   Biso      1.000     C          0.678704  
         C22       1.0000    0.39720   0.09160   0.44690   Biso      1.000     C          -0.1957   
         C23       1.0000    0.60280   0.69440   0.94690   Biso      1.000     C          -0.19571  
         C24       1.0000    0.65560   0.83980   0.89500   Biso      1.000     C          0.6787    
         Eu1       1.0000    0.00000   0.00000   0.00000   Biso      1.000     Eu          1.18383   
         Eu2       1.0000    0.00000   0.00000   0.50000   Biso      1.000     Eu          1.183825  
         H1        1.0000    0.67630   0.50900   0.47560   Biso      1.000     H          0.116728  
         H2        1.0000    0.59840   0.57300   0.41720   Biso      1.000     H          0.130544  
         H3        1.0000    0.57300   0.59840   0.91720   Biso      1.000     H          0.130544  
         H4        1.0000    0.50900   0.67630   0.97560   Biso      1.000     H          0.11673199999999999           
         H5        1.0000    0.02540   0.42700   0.91720   Biso      1.000     H          0.130545  
         H6        1.0000    0.40160   0.97460   0.91720   Biso      1.000     H          0.13054200000000002           
         H7        1.0000    0.32370   0.83270   0.97560   Biso      1.000     H          0.116729  
         H8        1.0000    0.57300   0.59840   0.58280   Biso      1.000     H          0.130545  
         H9        1.0000    0.50900   0.67630   0.52440   Biso      1.000     H          0.116728  
         H10       1.0000    0.02540   0.42700   0.58280   Biso      1.000     H          0.130545  
         H11       1.0000    0.16730   0.49100   0.52440   Biso      1.000     H          0.116729  
         H12       1.0000    0.16730   0.49100   0.97560   Biso      1.000     H          0.11673199999999999           
         H13       1.0000    0.32370   0.83270   0.52440   Biso      1.000     H          0.11673   
         H14       1.0000    0.42700   0.02540   0.41720   Biso      1.000     H          0.130545  
         H15       1.0000    0.40160   0.97460   0.58280   Biso      1.000     H          0.130546  
         H16       1.0000    0.83270   0.32370   0.47560   Biso      1.000     H          0.11673   
         H17       1.0000    0.97460   0.40160   0.41720   Biso      1.000     H          0.130547  
         H18       1.0000    0.49100   0.16730   0.02440   Biso      1.000     H          0.116728  
         H19       1.0000    0.49100   0.16730   0.47560   Biso      1.000     H          0.116728  
         H20       1.0000    0.67630   0.50900   0.02440   Biso      1.000     H          0.11673199999999999           
         H21       1.0000    0.59840   0.57300   0.08280   Biso      1.000     H          0.130545  
         H22       1.0000    0.83270   0.32370   0.02440   Biso      1.000     H          0.11673   
         H23       1.0000    0.97460   0.40160   0.08280   Biso      1.000     H          0.13054300000000002           
         H24       1.0000    0.42700   0.02540   0.08280   Biso      1.000     H          0.13054100000000002           
         La1       1.0000    0.66667   0.33334   0.25000   Biso      1.000     La          2.028182  
         La2       1.0000    0.33333   0.66666   0.75000   Biso      1.000     La          2.028181  
         O1        1.0000    0.96650   0.79380   0.09320   Biso      1.000     O          -0.491691           
         O2        1.0000    0.44160   0.26830   0.15570   Biso      1.000     O          -0.6789810000000001           
         O3        1.0000    0.20620   0.17270   0.09320   Biso      1.000     O          -0.49170600000000003          
         O4        1.0000    0.73170   0.17330   0.34430   Biso      1.000     O          -0.6789609999999999           
         O5        1.0000    0.82730   0.03350   0.40680   Biso      1.000     O          -0.49168599999999996          
         O6        1.0000    0.82670   0.55840   0.34430   Biso      1.000     O          -0.679002           
         O7        1.0000    0.73230   0.73230   0.00000   Biso      1.000     O          -0.189861           
         O8        1.0000    0.44160   0.26830   0.34430   Biso      1.000     O          -0.67898  
         O9        1.0000    0.20620   0.17270   0.40680   Biso      1.000     O          -0.491703           
         O10       1.0000    0.00000   0.26770   0.00000   Biso      1.000     O          -0.18986  
         O11       1.0000    0.26770   0.00000   0.00000   Biso      1.000     O          -0.189858           
         O12       1.0000    0.73230   0.73230   0.50000   Biso      1.000     O          -0.189857           
         O13       1.0000    0.96650   0.79380   0.40680   Biso      1.000     O          -0.491713           
         O14       1.0000    0.82670   0.55840   0.15570   Biso      1.000     O          -0.678999           
         O15       1.0000    0.79380   0.96650   0.90680   Biso      1.000     O          -0.491701           
         O16       1.0000    0.73170   0.17330   0.15570   Biso      1.000     O          -0.678964           
         O17       1.0000    0.03350   0.82730   0.59320   Biso      1.000     O          -0.491687           
         O18       1.0000    0.17330   0.73170   0.65570   Biso      1.000     O          -0.678976           
         O19       1.0000    0.17270   0.20620   0.59320   Biso      1.000     O          -0.491713           
         O20       1.0000    0.26830   0.44160   0.65570   Biso      1.000     O          -0.6790010000000001           
         O21       1.0000    0.79380   0.96650   0.59320   Biso      1.000     O          -0.491712           
         O22       1.0000    0.55840   0.82670   0.65570   Biso      1.000     O          -0.6789649999999999           
         O23       1.0000    0.03350   0.82730   0.90680   Biso      1.000     O          -0.491709           
         O24       1.0000    0.17330   0.73170   0.84430   Biso      1.000     O          -0.678978           
         O25       1.0000    0.17270   0.20620   0.90680   Biso      1.000     O          -0.491699           
         O26       1.0000    0.26830   0.44160   0.84430   Biso      1.000     O          -0.678998           
         O27       1.0000    0.55840   0.82670   0.84430   Biso      1.000     O          -0.678966           
         O28       1.0000    0.00000   0.26770   0.50000   Biso      1.000     O          -0.189859           
         O29       1.0000    0.82730   0.03350   0.09320   Biso      1.000     O          -0.491703           
         O30       1.0000    0.26770   0.00000   0.50000   Biso      1.000     O          -0.189857 