
##########################################################################
#               Crystallographic Information Format file
#               Produced by PyCifRW module
#
#  This is a CIF file.  CIF has been adopted by the International
#  Union of Crystallography as the standard for data archiving and
#  transmission.
#
#  For information on this file format, follow the CIF links at
#  http://www.iucr.org
##########################################################################

data_image0

_cell_length_a                          15.306
_cell_length_b                          6.726
_cell_length_c                          14.386
_cell_angle_alpha                       90
_cell_angle_beta                        90
_cell_angle_gamma                       90
_symmetry_space_group_name_H-M          'P 1'
_symmetry_int_tables_number             1
loop_
  _symmetry_equiv_pos_as_xyz
         'x, y, z' 
loop_
  _atom_site_label
  _atom_site_occupancy
  _atom_site_fract_x
  _atom_site_fract_y
  _atom_site_fract_z
  _atom_site_thermal_displace_type
  _atom_site_B_iso_or_equiv
  _atom_site_type_symbol
  _atom_site_charge
         C1        1.0000    0.41430   0.25000   0.99250   Biso      1.000     C          0.0836    
         C2        1.0000    0.32660   0.25000   0.22900   Biso      1.000     C          0.582176  
         C3        1.0000    0.99790   0.75000   0.50820   Biso      1.000     C          0.038126  
         C4        1.0000    0.08570   0.75000   0.49250   Biso      1.000     C          0.083616  
         C5        1.0000    0.10650   0.75000   0.65210   Biso      1.000     C          0.09711   
         C6        1.0000    0.02000   0.75000   0.66690   Biso      1.000     C          0.081648  
         C7        1.0000    0.92880   0.75000   0.43360   Biso      1.000     C          0.563428  
         C8        1.0000    0.12910   0.75000   0.39930   Biso      1.000     C          0.612117  
         C9        1.0000    0.89350   0.25000   0.34790   Biso      1.000     C          0.09711   
         C10       1.0000    0.17340   0.75000   0.72900   Biso      1.000     C          0.582179  
         C11       1.0000    0.91430   0.25000   0.50750   Biso      1.000     C          0.0836    
         C12       1.0000    0.00210   0.25000   0.49180   Biso      1.000     C          0.038139  
         C13       1.0000    0.50210   0.25000   0.00820   Biso      1.000     C          0.038139  
         C14       1.0000    0.39350   0.25000   0.15210   Biso      1.000     C          0.097111  
         C15       1.0000    0.48000   0.25000   0.16690   Biso      1.000     C          0.081648  
         C16       1.0000    0.57120   0.25000   0.93360   Biso      1.000     C          0.563431  
         C17       1.0000    0.37090   0.25000   0.89930   Biso      1.000     C          0.612118  
         C18       1.0000    0.97290   0.75000   0.75990   Biso      1.000     C          0.555738  
         C19       1.0000    0.98000   0.25000   0.33310   Biso      1.000     C          0.081645  
         C20       1.0000    0.52710   0.25000   0.25990   Biso      1.000     C          0.555745  
         C21       1.0000    0.87090   0.25000   0.60070   Biso      1.000     C          0.612121  
         C22       1.0000    0.47290   0.75000   0.74010   Biso      1.000     C          0.55574   
         C23       1.0000    0.67340   0.75000   0.77100   Biso      1.000     C          0.582185  
         C24       1.0000    0.62910   0.75000   0.10070   Biso      1.000     C          0.612122  
         C25       1.0000    0.42880   0.75000   0.06640   Biso      1.000     C          0.563429  
         C26       1.0000    0.07120   0.25000   0.56640   Biso      1.000     C          0.56343   
         C27       1.0000    0.60650   0.75000   0.84790   Biso      1.000     C          0.097109  
         C28       1.0000    0.58570   0.75000   0.00750   Biso      1.000     C          0.0836    
         C29       1.0000    0.52000   0.75000   0.83310   Biso      1.000     C          0.081647  
         C30       1.0000    0.02710   0.25000   0.24010   Biso      1.000     C          0.555745  
         C31       1.0000    0.82660   0.25000   0.27100   Biso      1.000     C          0.582187  
         C32       1.0000    0.49790   0.75000   0.99180   Biso      1.000     C          0.038139  
         Eu1       1.0000    0.69846   0.25000   0.12110   Biso      1.000     Eu          1.373145  
         Eu2       1.0000    0.30154   0.75000   0.87890   Biso      1.000     Eu          1.373139  
         Eu3       1.0000    0.80154   0.75000   0.62110   Biso      1.000     Eu          1.373151  
         Eu4       1.0000    0.19846   0.25000   0.37890   Biso      1.000     Eu          1.373147  
         N1        1.0000    0.64300   0.75000   0.93690   Biso      1.000     N          -0.228305           
         N2        1.0000    0.96650   0.75000   0.59550   Biso      1.000     N          -0.231472           
         N3        1.0000    0.35700   0.25000   0.06310   Biso      1.000     N          -0.228304           
         N4        1.0000    0.03350   0.25000   0.40450   Biso      1.000     N          -0.231471           
         N5        1.0000    0.85700   0.25000   0.43690   Biso      1.000     N          -0.228307           
         N6        1.0000    0.46650   0.75000   0.90450   Biso      1.000     N          -0.23147  
         N7        1.0000    0.53350   0.25000   0.09550   Biso      1.000     N          -0.231468           
         N8        1.0000    0.14300   0.75000   0.56310   Biso      1.000     N          -0.228309           
         Na1       1.0000    0.26390   0.25000   0.68900   Biso      1.000     Na          0.922232  
         Na2       1.0000    0.23610   0.75000   0.18900   Biso      1.000     Na          0.922241  
         Na3       1.0000    0.76390   0.25000   0.81100   Biso      1.000     Na          0.922237  
         Na4       1.0000    0.73610   0.75000   0.31100   Biso      1.000     Na          0.922234  
         O1        1.0000    0.15020   0.25000   0.53710   Biso      1.000     O          -0.694823           
         O2        1.0000    0.20560   0.91500   0.75490   Biso      1.000     O          -0.614908           
         O3        1.0000    0.35210   0.41310   0.86240   Biso      1.000     O          -0.589942           
         O4        1.0000    0.29440   0.08500   0.25490   Biso      1.000     O          -0.614907           
         O5        1.0000    0.85210   0.08690   0.63760   Biso      1.000     O          -0.589948           
         O6        1.0000    0.79440   0.41500   0.24510   Biso      1.000     O          -0.614918           
         O7        1.0000    0.64790   0.91310   0.13760   Biso      1.000     O          -0.589947           
         O8        1.0000    0.70560   0.58500   0.74510   Biso      1.000     O          -0.614916           
         O9        1.0000    0.85210   0.41310   0.63760   Biso      1.000     O          -0.589948           
         O10       1.0000    0.79440   0.08500   0.24510   Biso      1.000     O          -0.614918           
         O11       1.0000    0.64790   0.58690   0.13760   Biso      1.000     O          -0.589947           
         O12       1.0000    0.70560   0.91500   0.74510   Biso      1.000     O          -0.614916           
         O13       1.0000    0.14790   0.91310   0.36240   Biso      1.000     O          -0.589945           
         O14       1.0000    0.39160   0.75000   0.74110   Biso      1.000     O          -0.546648           
         O15       1.0000    0.52290   0.75000   0.66990   Biso      1.000     O          -0.365907           
         O16       1.0000    0.45050   0.75000   0.14750   Biso      1.000     O          -0.432489           
         O17       1.0000    0.20560   0.58500   0.75490   Biso      1.000     O          -0.614908           
         O18       1.0000    0.35210   0.08690   0.86240   Biso      1.000     O          -0.589942           
         O19       1.0000    0.29440   0.41500   0.25490   Biso      1.000     O          -0.614907           
         O20       1.0000    0.84980   0.75000   0.46290   Biso      1.000     O          -0.694824           
         O21       1.0000    0.95050   0.75000   0.35250   Biso      1.000     O          -0.432482           
         O22       1.0000    0.02290   0.75000   0.83010   Biso      1.000     O          -0.365891           
         O23       1.0000    0.89160   0.75000   0.75890   Biso      1.000     O          -0.546646           
         O24       1.0000    0.65020   0.25000   0.96290   Biso      1.000     O          -0.694824           
         O25       1.0000    0.54950   0.25000   0.85250   Biso      1.000     O          -0.432486           
         O26       1.0000    0.47710   0.25000   0.33010   Biso      1.000     O          -0.365902           
         O27       1.0000    0.60840   0.25000   0.25890   Biso      1.000     O          -0.546647           
         O28       1.0000    0.10840   0.25000   0.24110   Biso      1.000     O          -0.546649           
         O29       1.0000    0.97710   0.25000   0.16990   Biso      1.000     O          -0.365902           
         O30       1.0000    0.04950   0.25000   0.64750   Biso      1.000     O          -0.432488           
         O31       1.0000    0.34980   0.75000   0.03710   Biso      1.000     O          -0.694826           
         O32       1.0000    0.14790   0.58690   0.36240   Biso      1.000     O          -0.589945 