
##########################################################################
#               Crystallographic Information Format file
#               Produced by PyCifRW module
#
#  This is a CIF file.  CIF has been adopted by the International
#  Union of Crystallography as the standard for data archiving and
#  transmission.
#
#  For information on this file format, follow the CIF links at
#  http://www.iucr.org
##########################################################################

data_image0

_cell_length_a                          15.147
_cell_length_b                          6.6763
_cell_length_c                          14.375
_cell_angle_alpha                       90
_cell_angle_beta                        90
_cell_angle_gamma                       90
_symmetry_space_group_name_H-M          'P 1'
_symmetry_int_tables_number             1
loop_
  _symmetry_equiv_pos_as_xyz
         'x, y, z' 
loop_
  _atom_site_label
  _atom_site_occupancy
  _atom_site_fract_x
  _atom_site_fract_y
  _atom_site_fract_z
  _atom_site_thermal_displace_type
  _atom_site_B_iso_or_equiv
  _atom_site_type_symbol
  _atom_site_charge
         C1        1.0000    0.50360   0.25000   0.00820   Biso      1.000     C          0.046454  
         C2        1.0000    0.12960   0.75000   0.39940   Biso      1.000     C          0.670533  
         C3        1.0000    0.17670   0.75000   0.72980   Biso      1.000     C          0.622634  
         C4        1.0000    0.57250   0.25000   0.93380   Biso      1.000     C          0.597755  
         C5        1.0000    0.53090   0.25000   0.25870   Biso      1.000     C          0.601337  
         C6        1.0000    0.62960   0.75000   0.10060   Biso      1.000     C          0.670533  
         C7        1.0000    0.48210   0.25000   0.16700   Biso      1.000     C          0.099465  
         C8        1.0000    0.41280   0.25000   0.99400   Biso      1.000     C          0.06336   
         C9        1.0000    0.39340   0.25000   0.15270   Biso      1.000     C          0.121389  
         C10       1.0000    0.37040   0.25000   0.89940   Biso      1.000     C          0.670533  
         C11       1.0000    0.32330   0.25000   0.22980   Biso      1.000     C          0.622633  
         C12       1.0000    0.07250   0.25000   0.56620   Biso      1.000     C          0.597754  
         C13       1.0000    0.10660   0.75000   0.65270   Biso      1.000     C          0.121375  
         C14       1.0000    0.03090   0.25000   0.24130   Biso      1.000     C          0.601337  
         C15       1.0000    0.98210   0.25000   0.33300   Biso      1.000     C          0.099465  
         C16       1.0000    0.91280   0.25000   0.50600   Biso      1.000     C          0.063356  
         C17       1.0000    0.89340   0.25000   0.34730   Biso      1.000     C          0.121389  
         C18       1.0000    0.87040   0.25000   0.60060   Biso      1.000     C          0.670533  
         C19       1.0000    0.82330   0.25000   0.27020   Biso      1.000     C          0.622633  
         C20       1.0000    0.42750   0.75000   0.06620   Biso      1.000     C          0.597754  
         C21       1.0000    0.46910   0.75000   0.74130   Biso      1.000     C          0.601337  
         C22       1.0000    0.49640   0.75000   0.99180   Biso      1.000     C          0.046455  
         C23       1.0000    0.51790   0.75000   0.83300   Biso      1.000     C          0.099465  
         C24       1.0000    0.58720   0.75000   0.00600   Biso      1.000     C          0.06336   
         C25       1.0000    0.60660   0.75000   0.84730   Biso      1.000     C          0.121389  
         C26       1.0000    0.00360   0.25000   0.49180   Biso      1.000     C          0.046458  
         C27       1.0000    0.08720   0.75000   0.49400   Biso      1.000     C          0.063356  
         C28       1.0000    0.67670   0.75000   0.77020   Biso      1.000     C          0.622633  
         C29       1.0000    0.01790   0.75000   0.66700   Biso      1.000     C          0.099479  
         C30       1.0000    0.99640   0.75000   0.50820   Biso      1.000     C          0.046459  
         C31       1.0000    0.96910   0.75000   0.75870   Biso      1.000     C          0.601336  
         C32       1.0000    0.92750   0.75000   0.43380   Biso      1.000     C          0.597754  
         N1        1.0000    0.14270   0.75000   0.56600   Biso      1.000     N          -0.278685           
         N2        1.0000    0.64270   0.75000   0.93400   Biso      1.000     N          -0.278686           
         N3        1.0000    0.85730   0.25000   0.43400   Biso      1.000     N          -0.278686           
         N4        1.0000    0.35730   0.25000   0.06600   Biso      1.000     N          -0.278686           
         N5        1.0000    0.53530   0.25000   0.09480   Biso      1.000     N          -0.337096           
         N6        1.0000    0.46470   0.75000   0.90520   Biso      1.000     N          -0.337095           
         N7        1.0000    0.03530   0.25000   0.40520   Biso      1.000     N          -0.337096           
         N8        1.0000    0.96470   0.75000   0.59480   Biso      1.000     N          -0.337098           
         Na1       1.0000    0.26540   0.25000   0.69000   Biso      1.000     Na          0.934639  
         Na2       1.0000    0.76540   0.25000   0.81000   Biso      1.000     Na          0.934638  
         Na3       1.0000    0.73460   0.75000   0.31000   Biso      1.000     Na          0.934636  
         Na4       1.0000    0.23460   0.75000   0.19000   Biso      1.000     Na          0.934636  
         O1        1.0000    0.34730   0.75000   0.03670   Biso      1.000     O          -0.806493           
         O2        1.0000    0.38940   0.75000   0.74280   Biso      1.000     O          -0.634129           
         O3        1.0000    0.14810   0.91560   0.36300   Biso      1.000     O          -0.667853           
         O4        1.0000    0.20330   0.91600   0.75820   Biso      1.000     O          -0.679906           
         O5        1.0000    0.44830   0.75000   0.14750   Biso      1.000     O          -0.469531           
         O6        1.0000    0.29670   0.08400   0.25820   Biso      1.000     O          -0.679905           
         O7        1.0000    0.14810   0.58440   0.36300   Biso      1.000     O          -0.667853           
         O8        1.0000    0.79670   0.41600   0.24180   Biso      1.000     O          -0.679905           
         O9        1.0000    0.29670   0.41600   0.25820   Biso      1.000     O          -0.679905           
         O10       1.0000    0.51850   0.75000   0.67000   Biso      1.000     O          -0.573872           
         O11       1.0000    0.64810   0.91560   0.13700   Biso      1.000     O          -0.667853           
         O12       1.0000    0.70330   0.58400   0.74180   Biso      1.000     O          -0.679905           
         O13       1.0000    0.35190   0.41560   0.86300   Biso      1.000     O          -0.667853           
         O14       1.0000    0.35190   0.08440   0.86300   Biso      1.000     O          -0.667853           
         O15       1.0000    0.94830   0.75000   0.35250   Biso      1.000     O          -0.46953  
         O16       1.0000    0.05170   0.25000   0.64750   Biso      1.000     O          -0.46953  
         O17       1.0000    0.65270   0.25000   0.96330   Biso      1.000     O          -0.806494           
         O18       1.0000    0.61060   0.25000   0.25720   Biso      1.000     O          -0.634129           
         O19       1.0000    0.55170   0.25000   0.85250   Biso      1.000     O          -0.469531           
         O20       1.0000    0.48150   0.25000   0.33000   Biso      1.000     O          -0.573872           
         O21       1.0000    0.88940   0.75000   0.75720   Biso      1.000     O          -0.634128           
         O22       1.0000    0.84730   0.75000   0.46330   Biso      1.000     O          -0.806493           
         O23       1.0000    0.98150   0.25000   0.17000   Biso      1.000     O          -0.573872           
         O24       1.0000    0.79670   0.08400   0.24180   Biso      1.000     O          -0.679905           
         O25       1.0000    0.11060   0.25000   0.24280   Biso      1.000     O          -0.634128           
         O26       1.0000    0.64810   0.58440   0.13700   Biso      1.000     O          -0.667853           
         O27       1.0000    0.01850   0.75000   0.83000   Biso      1.000     O          -0.573871           
         O28       1.0000    0.70330   0.91600   0.74180   Biso      1.000     O          -0.679905           
         O29       1.0000    0.85190   0.41560   0.63700   Biso      1.000     O          -0.667853           
         O30       1.0000    0.20330   0.58400   0.75820   Biso      1.000     O          -0.679906           
         O31       1.0000    0.15270   0.25000   0.53670   Biso      1.000     O          -0.806494           
         O32       1.0000    0.85190   0.08440   0.63700   Biso      1.000     O          -0.667853           
         Tb1       1.0000    0.19969   0.25000   0.37977   Biso      1.000     Tb          2.03776   
         Tb2       1.0000    0.80031   0.75000   0.62023   Biso      1.000     Tb          2.037759  
         Tb3       1.0000    0.30031   0.75000   0.87977   Biso      1.000     Tb          2.037758  
         Tb4       1.0000    0.69969   0.25000   0.12023   Biso      1.000     Tb          2.037761 