
##########################################################################
#               Crystallographic Information Format file
#               Produced by PyCifRW module
#
#  This is a CIF file.  CIF has been adopted by the International
#  Union of Crystallography as the standard for data archiving and
#  transmission.
#
#  For information on this file format, follow the CIF links at
#  http://www.iucr.org
##########################################################################

data_image0

_cell_length_a                          15.251
_cell_length_b                          6.699
_cell_length_c                          14.382
_cell_angle_alpha                       90
_cell_angle_beta                        90
_cell_angle_gamma                       90
_symmetry_space_group_name_H-M          'P 1'
_symmetry_int_tables_number             1
loop_
  _symmetry_equiv_pos_as_xyz
         'x, y, z' 
loop_
  _atom_site_label
  _atom_site_occupancy
  _atom_site_fract_x
  _atom_site_fract_y
  _atom_site_fract_z
  _atom_site_thermal_displace_type
  _atom_site_B_iso_or_equiv
  _atom_site_type_symbol
  _atom_site_charge
         C1        1.0000    0.50360   0.25000   0.00730   Biso      1.000     C          0.046655  
         C2        1.0000    0.12850   0.75000   0.39940   Biso      1.000     C          0.663543  
         C3        1.0000    0.17300   0.75000   0.73000   Biso      1.000     C          0.611517  
         C4        1.0000    0.57150   0.25000   0.93400   Biso      1.000     C          0.596631  
         C5        1.0000    0.52970   0.25000   0.26090   Biso      1.000     C          0.612681  
         C6        1.0000    0.62850   0.75000   0.10060   Biso      1.000     C          0.663543  
         C7        1.0000    0.48030   0.25000   0.16790   Biso      1.000     C          0.08931   
         C8        1.0000    0.41280   0.25000   0.99480   Biso      1.000     C          0.06465   
         C9        1.0000    0.39350   0.25000   0.15260   Biso      1.000     C          0.12131900000000001           
         C10       1.0000    0.37150   0.25000   0.89940   Biso      1.000     C          0.663543  
         C11       1.0000    0.32700   0.25000   0.23000   Biso      1.000     C          0.6115149999999999  
         C12       1.0000    0.07150   0.25000   0.56600   Biso      1.000     C          0.596631  
         C13       1.0000    0.10650   0.75000   0.65260   Biso      1.000     C          0.121296  
         C14       1.0000    0.02970   0.25000   0.23910   Biso      1.000     C          0.612681  
         C15       1.0000    0.98030   0.25000   0.33210   Biso      1.000     C          0.08931   
         C16       1.0000    0.91280   0.25000   0.50520   Biso      1.000     C          0.064649  
         C17       1.0000    0.89350   0.25000   0.34740   Biso      1.000     C          0.12131900000000001           
         C18       1.0000    0.87150   0.25000   0.60060   Biso      1.000     C          0.663543  
         C19       1.0000    0.82700   0.25000   0.27000   Biso      1.000     C          0.6115149999999999  
         C20       1.0000    0.42850   0.75000   0.06600   Biso      1.000     C          0.596631  
         C21       1.0000    0.47030   0.75000   0.73910   Biso      1.000     C          0.612681  
         C22       1.0000    0.49640   0.75000   0.99270   Biso      1.000     C          0.046655  
         C23       1.0000    0.51970   0.75000   0.83210   Biso      1.000     C          0.08931   
         C24       1.0000    0.58720   0.75000   0.00520   Biso      1.000     C          0.06465   
         C25       1.0000    0.60650   0.75000   0.84740   Biso      1.000     C          0.12131900000000001           
         C26       1.0000    0.00360   0.25000   0.49270   Biso      1.000     C          0.046656  
         C27       1.0000    0.08720   0.75000   0.49480   Biso      1.000     C          0.064648  
         C28       1.0000    0.67300   0.75000   0.77000   Biso      1.000     C          0.6115149999999999  
         C29       1.0000    0.97030   0.75000   0.76090   Biso      1.000     C          0.612679  
         C30       1.0000    0.01970   0.75000   0.66790   Biso      1.000     C          0.089334  
         C31       1.0000    0.99640   0.75000   0.50730   Biso      1.000     C          0.046657  
         C32       1.0000    0.92850   0.75000   0.43400   Biso      1.000     C          0.5966319999999999  
         Gd1       1.0000    0.19891   0.25000   0.37927   Biso      1.000     Gd          2.0198419999999997  
         Gd2       1.0000    0.69891   0.25000   0.12073   Biso      1.000     Gd          2.019841  
         Gd3       1.0000    0.30109   0.75000   0.87927   Biso      1.000     Gd          2.019841  
         Gd4       1.0000    0.80109   0.75000   0.62073   Biso      1.000     Gd          2.019841  
         N1        1.0000    0.96550   0.75000   0.59540   Biso      1.000     N          -0.334361           
         N2        1.0000    0.03450   0.25000   0.40460   Biso      1.000     N          -0.334358           
         N3        1.0000    0.85770   0.25000   0.43410   Biso      1.000     N          -0.269541           
         N4        1.0000    0.53450   0.25000   0.09540   Biso      1.000     N          -0.334358           
         N5        1.0000    0.64230   0.75000   0.93410   Biso      1.000     N          -0.269541           
         N6        1.0000    0.14230   0.75000   0.56590   Biso      1.000     N          -0.269539           
         N7        1.0000    0.46550   0.75000   0.90460   Biso      1.000     N          -0.334358           
         N8        1.0000    0.35770   0.25000   0.06590   Biso      1.000     N          -0.269541           
         Na1       1.0000    0.23570   0.75000   0.18940   Biso      1.000     Na          0.934383  
         Na2       1.0000    0.26430   0.25000   0.68940   Biso      1.000     Na          0.934384  
         Na3       1.0000    0.73570   0.75000   0.31060   Biso      1.000     Na          0.934383  
         Na4       1.0000    0.76430   0.25000   0.81060   Biso      1.000     Na          0.934383  
         O1        1.0000    0.14670   0.91470   0.36250   Biso      1.000     O          -0.661724           
         O2        1.0000    0.14670   0.58530   0.36250   Biso      1.000     O          -0.661724           
         O3        1.0000    0.51940   0.75000   0.67010   Biso      1.000     O          -0.561381           
         O4        1.0000    0.29570   0.08300   0.25660   Biso      1.000     O          -0.6832739999999999           
         O5        1.0000    0.64670   0.91470   0.13750   Biso      1.000     O          -0.661724           
         O6        1.0000    0.35330   0.41470   0.86250   Biso      1.000     O          -0.661725           
         O7        1.0000    0.39080   0.75000   0.74290   Biso      1.000     O          -0.636224           
         O8        1.0000    0.34940   0.75000   0.03700   Biso      1.000     O          -0.791154           
         O9        1.0000    0.70430   0.58300   0.74340   Biso      1.000     O          -0.6832739999999999           
         O10       1.0000    0.20430   0.91700   0.75660   Biso      1.000     O          -0.683275           
         O11       1.0000    0.79570   0.41700   0.24340   Biso      1.000     O          -0.6832739999999999           
         O12       1.0000    0.44900   0.75000   0.14840   Biso      1.000     O          -0.47787399999999997          
         O13       1.0000    0.94900   0.75000   0.35160   Biso      1.000     O          -0.47787399999999997          
         O14       1.0000    0.35330   0.08530   0.86250   Biso      1.000     O          -0.661725           
         O15       1.0000    0.65060   0.25000   0.96300   Biso      1.000     O          -0.791154           
         O16       1.0000    0.60920   0.25000   0.25710   Biso      1.000     O          -0.636223           
         O17       1.0000    0.55100   0.25000   0.85160   Biso      1.000     O          -0.47787399999999997          
         O18       1.0000    0.48060   0.25000   0.32990   Biso      1.000     O          -0.5613819999999999           
         O19       1.0000    0.89080   0.75000   0.75710   Biso      1.000     O          -0.636223           
         O20       1.0000    0.84940   0.75000   0.46300   Biso      1.000     O          -0.791153           
         O21       1.0000    0.79570   0.08300   0.24340   Biso      1.000     O          -0.6832739999999999           
         O22       1.0000    0.29570   0.41700   0.25660   Biso      1.000     O          -0.6832739999999999           
         O23       1.0000    0.15060   0.25000   0.53700   Biso      1.000     O          -0.791154           
         O24       1.0000    0.64670   0.58530   0.13750   Biso      1.000     O          -0.661724           
         O25       1.0000    0.01940   0.75000   0.82990   Biso      1.000     O          -0.561381           
         O26       1.0000    0.70430   0.91700   0.74340   Biso      1.000     O          -0.6832739999999999           
         O27       1.0000    0.85330   0.41470   0.63750   Biso      1.000     O          -0.661724           
         O28       1.0000    0.20430   0.58300   0.75660   Biso      1.000     O          -0.683275           
         O29       1.0000    0.05100   0.25000   0.64840   Biso      1.000     O          -0.47787399999999997          
         O30       1.0000    0.98060   0.25000   0.17010   Biso      1.000     O          -0.561381           
         O31       1.0000    0.10920   0.25000   0.24290   Biso      1.000     O          -0.636224           
         O32       1.0000    0.85330   0.08530   0.63750   Biso      1.000     O          -0.661724 