
##########################################################################
#               Crystallographic Information Format file
#               Produced by PyCifRW module
#
#  This is a CIF file.  CIF has been adopted by the International
#  Union of Crystallography as the standard for data archiving and
#  transmission.
#
#  For information on this file format, follow the CIF links at
#  http://www.iucr.org
##########################################################################

data_image0

_cell_length_a                          15.414
_cell_length_b                          6.718
_cell_length_c                          14.322
_cell_angle_alpha                       90
_cell_angle_beta                        90
_cell_angle_gamma                       90
_symmetry_space_group_name_H-M          'P 1'
_symmetry_int_tables_number             1
loop_
  _symmetry_equiv_pos_as_xyz
         'x, y, z' 
loop_
  _atom_site_label
  _atom_site_occupancy
  _atom_site_fract_x
  _atom_site_fract_y
  _atom_site_fract_z
  _atom_site_thermal_displace_type
  _atom_site_B_iso_or_equiv
  _atom_site_type_symbol
  _atom_site_charge
         C1        1.0000    0.92730   0.75000   0.43070   Biso      1.000     C          0.579258  
         C2        1.0000    0.07270   0.25000   0.56930   Biso      1.000     C          0.579257  
         C3        1.0000    0.88870   0.25000   0.35190   Biso      1.000     C          0.09988   
         C4        1.0000    0.91480   0.25000   0.50970   Biso      1.000     C          0.061997  
         C5        1.0000    0.00290   0.25000   0.49300   Biso      1.000     C          0.034584  
         C6        1.0000    0.52090   0.25000   0.25960   Biso      1.000     C          0.601265  
         C7        1.0000    0.32200   0.25000   0.22250   Biso      1.000     C          0.630955  
         C8        1.0000    0.37440   0.25000   0.89200   Biso      1.000     C          0.664562  
         C9        1.0000    0.99710   0.75000   0.50700   Biso      1.000     C          0.03458   
         C10       1.0000    0.08520   0.75000   0.49030   Biso      1.000     C          0.062001  
         C11       1.0000    0.11130   0.75000   0.64810   Biso      1.000     C          0.09988   
         C12       1.0000    0.02140   0.75000   0.66510   Biso      1.000     C          0.088341  
         C13       1.0000    0.57270   0.25000   0.93070   Biso      1.000     C          0.579257  
         C14       1.0000    0.12560   0.75000   0.39200   Biso      1.000     C          0.664562  
         C15       1.0000    0.17800   0.75000   0.72250   Biso      1.000     C          0.630955  
         C16       1.0000    0.97910   0.75000   0.75960   Biso      1.000     C          0.601265  
         C17       1.0000    0.47860   0.25000   0.16510   Biso      1.000     C          0.088341  
         C18       1.0000    0.38870   0.25000   0.14810   Biso      1.000     C          0.09988   
         C19       1.0000    0.41480   0.25000   0.99030   Biso      1.000     C          0.061997  
         C20       1.0000    0.50290   0.25000   0.00700   Biso      1.000     C          0.034584  
         C21       1.0000    0.87440   0.25000   0.60800   Biso      1.000     C          0.664562  
         C22       1.0000    0.82200   0.25000   0.27750   Biso      1.000     C          0.630955  
         C23       1.0000    0.97860   0.25000   0.33490   Biso      1.000     C          0.088341  
         C24       1.0000    0.58520   0.75000   0.00970   Biso      1.000     C          0.061997  
         C25       1.0000    0.02090   0.25000   0.24040   Biso      1.000     C          0.601265  
         C26       1.0000    0.61130   0.75000   0.85190   Biso      1.000     C          0.09988   
         C27       1.0000    0.49710   0.75000   0.99300   Biso      1.000     C          0.034584  
         C28       1.0000    0.52140   0.75000   0.83490   Biso      1.000     C          0.088341  
         C29       1.0000    0.47910   0.75000   0.74040   Biso      1.000     C          0.601265  
         C30       1.0000    0.67800   0.75000   0.77750   Biso      1.000     C          0.630955  
         C31       1.0000    0.62560   0.75000   0.10800   Biso      1.000     C          0.664562  
         C32       1.0000    0.42730   0.75000   0.06930   Biso      1.000     C          0.579257  
         Ce1       1.0000    0.19666   0.25000   0.37657   Biso      1.000     Ce          1.94105   
         Ce2       1.0000    0.69666   0.25000   0.12343   Biso      1.000     Ce          1.94105   
         Ce3       1.0000    0.30334   0.75000   0.87657   Biso      1.000     Ce          1.94105   
         Ce4       1.0000    0.80334   0.75000   0.62343   Biso      1.000     Ce          1.94105   
         H1        1.0000    0.80910   0.96640   0.09520   Biso      1.000     H          0.472794  
         H2        1.0000    0.67000   0.88510   0.53350   Biso      1.000     H          0.442047  
         H3        1.0000    0.30910   0.53360   0.40480   Biso      1.000     H          0.472794  
         H4        1.0000    0.33000   0.38510   0.46650   Biso      1.000     H          0.442047  
         H5        1.0000    0.69090   0.03360   0.59520   Biso      1.000     H          0.472794  
         H6        1.0000    0.83000   0.11490   0.03350   Biso      1.000     H          0.442047  
         H7        1.0000    0.30910   0.96640   0.40480   Biso      1.000     H          0.472794  
         H8        1.0000    0.80910   0.53360   0.09520   Biso      1.000     H          0.472794  
         H9        1.0000    0.33000   0.11490   0.46650   Biso      1.000     H          0.442047  
         H10       1.0000    0.17000   0.61490   0.96650   Biso      1.000     H          0.442047  
         H11       1.0000    0.19090   0.03360   0.90480   Biso      1.000     H          0.472794  
         H12       1.0000    0.67000   0.61490   0.53350   Biso      1.000     H          0.442047  
         H13       1.0000    0.69090   0.46640   0.59520   Biso      1.000     H          0.472794  
         H14       1.0000    0.17000   0.88510   0.96650   Biso      1.000     H          0.442047  
         H15       1.0000    0.19090   0.46640   0.90480   Biso      1.000     H          0.472794  
         H16       1.0000    0.83000   0.38510   0.03350   Biso      1.000     H          0.442047  
         N1        1.0000    0.46660   0.75000   0.90520   Biso      1.000     N          -0.306095           
         N2        1.0000    0.53340   0.25000   0.09480   Biso      1.000     N          -0.306095           
         N3        1.0000    0.85750   0.25000   0.43800   Biso      1.000     N          -0.234817           
         N4        1.0000    0.14250   0.75000   0.56200   Biso      1.000     N          -0.234817           
         N5        1.0000    0.96660   0.75000   0.59480   Biso      1.000     N          -0.306094           
         N6        1.0000    0.03340   0.25000   0.40520   Biso      1.000     N          -0.306095           
         N7        1.0000    0.64250   0.75000   0.93800   Biso      1.000     N          -0.234817           
         N8        1.0000    0.35750   0.25000   0.06200   Biso      1.000     N          -0.234817           
         Na1       1.0000    0.25860   0.25000   0.69090   Biso      1.000     Na          0.916188  
         Na2       1.0000    0.24140   0.75000   0.19090   Biso      1.000     Na          0.916188  
         Na3       1.0000    0.75860   0.25000   0.80910   Biso      1.000     Na          0.916188  
         Na4       1.0000    0.74140   0.75000   0.30910   Biso      1.000     Na          0.916188  
         O1        1.0000    0.47270   0.25000   0.32860   Biso      1.000     O          -0.596133           
         O2        1.0000    0.34970   0.75000   0.03780   Biso      1.000     O          -0.735084           
         O3        1.0000    0.44980   0.75000   0.15020   Biso      1.000     O          -0.509392           
         O4        1.0000    0.52730   0.75000   0.67140   Biso      1.000     O          -0.596133           
         O5        1.0000    0.39720   0.75000   0.74020   Biso      1.000     O          -0.649735           
         O6        1.0000    0.85530   0.41320   0.64150   Biso      1.000     O          -0.652734           
         O7        1.0000    0.20450   0.52200   0.95550   Biso      1.000     O          -0.853373           
         O8        1.0000    0.70690   0.58490   0.74780   Biso      1.000     O          -0.702146           
         O9        1.0000    0.64470   0.91320   0.14150   Biso      1.000     O          -0.652734           
         O10       1.0000    0.29550   0.47800   0.45550   Biso      1.000     O          -0.853373           
         O11       1.0000    0.79310   0.41510   0.24780   Biso      1.000     O          -0.702146           
         O12       1.0000    0.85530   0.08680   0.64150   Biso      1.000     O          -0.652734           
         O13       1.0000    0.79550   0.02200   0.04450   Biso      1.000     O          -0.853373           
         O14       1.0000    0.29310   0.08490   0.25220   Biso      1.000     O          -0.702146           
         O15       1.0000    0.35530   0.41320   0.85850   Biso      1.000     O          -0.652734           
         O16       1.0000    0.70450   0.97800   0.54450   Biso      1.000     O          -0.853373           
         O17       1.0000    0.20690   0.91510   0.75220   Biso      1.000     O          -0.702146           
         O18       1.0000    0.79310   0.08490   0.24780   Biso      1.000     O          -0.702146           
         O19       1.0000    0.29550   0.02200   0.45550   Biso      1.000     O          -0.853373           
         O20       1.0000    0.64470   0.58680   0.14150   Biso      1.000     O          -0.652734           
         O21       1.0000    0.70690   0.91510   0.74780   Biso      1.000     O          -0.702146           
         O22       1.0000    0.55020   0.25000   0.84980   Biso      1.000     O          -0.509392           
         O23       1.0000    0.65030   0.25000   0.96220   Biso      1.000     O          -0.735084           
         O24       1.0000    0.89720   0.75000   0.75980   Biso      1.000     O          -0.649735           
         O25       1.0000    0.02730   0.75000   0.82860   Biso      1.000     O          -0.596133           
         O26       1.0000    0.94980   0.75000   0.34980   Biso      1.000     O          -0.509392           
         O27       1.0000    0.84970   0.75000   0.46220   Biso      1.000     O          -0.735084           
         O28       1.0000    0.15030   0.25000   0.53780   Biso      1.000     O          -0.735084           
         O29       1.0000    0.05020   0.25000   0.65020   Biso      1.000     O          -0.509392           
         O30       1.0000    0.97270   0.25000   0.17140   Biso      1.000     O          -0.596133           
         O31       1.0000    0.10280   0.25000   0.24020   Biso      1.000     O          -0.649735           
         O32       1.0000    0.79550   0.47800   0.04450   Biso      1.000     O          -0.853373           
         O33       1.0000    0.29310   0.41510   0.25220   Biso      1.000     O          -0.702146           
         O34       1.0000    0.35530   0.08680   0.85850   Biso      1.000     O          -0.652734           
         O35       1.0000    0.70450   0.52200   0.54450   Biso      1.000     O          -0.853373           
         O36       1.0000    0.20690   0.58490   0.75220   Biso      1.000     O          -0.702146           
         O37       1.0000    0.14470   0.91320   0.35850   Biso      1.000     O          -0.652734           
         O38       1.0000    0.20450   0.97800   0.95550   Biso      1.000     O          -0.853373           
         O39       1.0000    0.60280   0.25000   0.25980   Biso      1.000     O          -0.649735           
         O40       1.0000    0.14470   0.58680   0.35850   Biso      1.000     O          -0.652734 