
##########################################################################
#               Crystallographic Information Format file
#               Produced by PyCifRW module
#
#  This is a CIF file.  CIF has been adopted by the International
#  Union of Crystallography as the standard for data archiving and
#  transmission.
#
#  For information on this file format, follow the CIF links at
#  http://www.iucr.org
##########################################################################

data_image0

_cell_length_a                          15.569
_cell_length_b                          6.8533
_cell_length_c                          14.397
_cell_angle_alpha                       90
_cell_angle_beta                        90
_cell_angle_gamma                       90
_symmetry_space_group_name_H-M          'P 1'
_symmetry_int_tables_number             1
loop_
  _symmetry_equiv_pos_as_xyz
         'x, y, z' 
loop_
  _atom_site_label
  _atom_site_occupancy
  _atom_site_fract_x
  _atom_site_fract_y
  _atom_site_fract_z
  _atom_site_thermal_displace_type
  _atom_site_B_iso_or_equiv
  _atom_site_type_symbol
  _atom_site_charge
         C1        1.0000    0.41260   0.25000   0.99100   Biso      1.000     C          0.064777  
         C2        1.0000    0.38910   0.25000   0.14740   Biso      1.000     C          0.115239  
         C3        1.0000    0.99880   0.75000   0.50660   Biso      1.000     C          0.047195  
         C4        1.0000    0.08740   0.75000   0.49100   Biso      1.000     C          0.064777  
         C5        1.0000    0.11090   0.75000   0.64740   Biso      1.000     C          0.115239  
         C6        1.0000    0.02230   0.75000   0.66350   Biso      1.000     C          0.097864  
         C7        1.0000    0.93070   0.75000   0.43100   Biso      1.000     C          0.595787  
         C8        1.0000    0.91260   0.25000   0.50900   Biso      1.000     C          0.064777  
         C9        1.0000    0.12920   0.75000   0.39600   Biso      1.000     C          0.676558  
         C10       1.0000    0.98170   0.75000   0.75820   Biso      1.000     C          0.610064  
         C11       1.0000    0.51830   0.25000   0.25820   Biso      1.000     C          0.610064  
         C12       1.0000    0.32110   0.25000   0.22250   Biso      1.000     C          0.643052  
         C13       1.0000    0.37080   0.25000   0.89600   Biso      1.000     C          0.676558  
         C14       1.0000    0.50120   0.25000   0.00660   Biso      1.000     C          0.047195  
         C15       1.0000    0.56930   0.25000   0.93100   Biso      1.000     C          0.595788  
         C16       1.0000    0.17890   0.75000   0.72250   Biso      1.000     C          0.643052  
         C17       1.0000    0.88910   0.25000   0.35260   Biso      1.000     C          0.115239  
         C18       1.0000    0.00120   0.25000   0.49340   Biso      1.000     C          0.047195  
         C19       1.0000    0.06930   0.25000   0.56900   Biso      1.000     C          0.595788  
         C20       1.0000    0.48170   0.75000   0.74180   Biso      1.000     C          0.610064  
         C21       1.0000    0.67890   0.75000   0.77750   Biso      1.000     C          0.643052  
         C22       1.0000    0.62920   0.75000   0.10400   Biso      1.000     C          0.676558  
         C23       1.0000    0.43070   0.75000   0.06900   Biso      1.000     C          0.595788  
         C24       1.0000    0.97770   0.25000   0.33650   Biso      1.000     C          0.097864  
         C25       1.0000    0.61090   0.75000   0.85260   Biso      1.000     C          0.115239  
         C26       1.0000    0.58740   0.75000   0.00900   Biso      1.000     C          0.064777  
         C27       1.0000    0.52230   0.75000   0.83650   Biso      1.000     C          0.097864  
         C28       1.0000    0.01830   0.25000   0.24180   Biso      1.000     C          0.610064  
         C29       1.0000    0.82110   0.25000   0.27750   Biso      1.000     C          0.643052  
         C30       1.0000    0.87080   0.25000   0.60400   Biso      1.000     C          0.676558  
         C31       1.0000    0.49880   0.75000   0.99340   Biso      1.000     C          0.047195  
         C32       1.0000    0.47770   0.25000   0.16350   Biso      1.000     C          0.097864  
         N1        1.0000    0.64220   0.75000   0.93830   Biso      1.000     N          -0.285295           
         N2        1.0000    0.46810   0.75000   0.90660   Biso      1.000     N          -0.331964           
         N3        1.0000    0.14220   0.75000   0.56170   Biso      1.000     N          -0.285295           
         N4        1.0000    0.85780   0.25000   0.43830   Biso      1.000     N          -0.285295           
         N5        1.0000    0.03190   0.25000   0.40660   Biso      1.000     N          -0.331964           
         N6        1.0000    0.96810   0.75000   0.59340   Biso      1.000     N          -0.331964           
         N7        1.0000    0.53190   0.25000   0.09340   Biso      1.000     N          -0.331964           
         N8        1.0000    0.35780   0.25000   0.06170   Biso      1.000     N          -0.285295           
         Na1       1.0000    0.25950   0.25000   0.69210   Biso      1.000     Na          0.932425  
         Na2       1.0000    0.24050   0.75000   0.19210   Biso      1.000     Na          0.932423  
         Na3       1.0000    0.75950   0.25000   0.80790   Biso      1.000     Na          0.932423  
         Na4       1.0000    0.74050   0.75000   0.30790   Biso      1.000     Na          0.932424  
         O1        1.0000    0.45550   0.75000   0.15010   Biso      1.000     O          -0.48598  
         O2        1.0000    0.52830   0.75000   0.67350   Biso      1.000     O          -0.546193           
         O3        1.0000    0.40120   0.75000   0.74090   Biso      1.000     O          -0.668034           
         O4        1.0000    0.14740   0.91070   0.36150   Biso      1.000     O          -0.675716           
         O5        1.0000    0.70640   0.90900   0.75030   Biso      1.000     O          -0.695319           
         O6        1.0000    0.64740   0.58930   0.13850   Biso      1.000     O          -0.675716           
         O7        1.0000    0.79360   0.09100   0.25030   Biso      1.000     O          -0.69532  
         O8        1.0000    0.59880   0.25000   0.25910   Biso      1.000     O          -0.668034           
         O9        1.0000    0.70640   0.59100   0.75030   Biso      1.000     O          -0.69532  
         O10       1.0000    0.64740   0.91070   0.13850   Biso      1.000     O          -0.675716           
         O11       1.0000    0.79360   0.40900   0.25030   Biso      1.000     O          -0.69532  
         O12       1.0000    0.85260   0.08930   0.63850   Biso      1.000     O          -0.675716           
         O13       1.0000    0.29360   0.09100   0.24970   Biso      1.000     O          -0.69532  
         O14       1.0000    0.35260   0.41070   0.86150   Biso      1.000     O          -0.675716           
         O15       1.0000    0.20640   0.90900   0.74970   Biso      1.000     O          -0.69532  
         O16       1.0000    0.35400   0.75000   0.04090   Biso      1.000     O          -0.788132           
         O17       1.0000    0.85260   0.41070   0.63850   Biso      1.000     O          -0.675716           
         O18       1.0000    0.14740   0.58930   0.36150   Biso      1.000     O          -0.675716           
         O19       1.0000    0.35260   0.08930   0.86150   Biso      1.000     O          -0.675716           
         O20       1.0000    0.47170   0.25000   0.32650   Biso      1.000     O          -0.546194           
         O21       1.0000    0.54450   0.25000   0.84990   Biso      1.000     O          -0.48598  
         O22       1.0000    0.14600   0.25000   0.54090   Biso      1.000     O          -0.788133           
         O23       1.0000    0.04450   0.25000   0.65010   Biso      1.000     O          -0.485979           
         O24       1.0000    0.97170   0.25000   0.17350   Biso      1.000     O          -0.546194           
         O25       1.0000    0.09880   0.25000   0.24090   Biso      1.000     O          -0.668034           
         O26       1.0000    0.20640   0.59100   0.74970   Biso      1.000     O          -0.69532  
         O27       1.0000    0.64600   0.25000   0.95910   Biso      1.000     O          -0.788132           
         O28       1.0000    0.90120   0.75000   0.75910   Biso      1.000     O          -0.668034           
         O29       1.0000    0.02830   0.75000   0.82650   Biso      1.000     O          -0.546194           
         O30       1.0000    0.95550   0.75000   0.34990   Biso      1.000     O          -0.485979           
         O31       1.0000    0.85400   0.75000   0.45910   Biso      1.000     O          -0.788133           
         O32       1.0000    0.29360   0.40900   0.24970   Biso      1.000     O          -0.69532  
         Sm1       1.0000    0.19819   0.25000   0.37857   Biso      1.000     Sm          2.064711  
         Sm2       1.0000    0.80181   0.75000   0.62143   Biso      1.000     Sm          2.064711  
         Sm3       1.0000    0.69819   0.25000   0.12143   Biso      1.000     Sm          2.064711  
         Sm4       1.0000    0.30181   0.75000   0.87857   Biso      1.000     Sm          2.064711 