
##########################################################################
#               Crystallographic Information Format file
#               Produced by PyCifRW module
#
#  This is a CIF file.  CIF has been adopted by the International
#  Union of Crystallography as the standard for data archiving and
#  transmission.
#
#  For information on this file format, follow the CIF links at
#  http://www.iucr.org
##########################################################################

data_image0

_cell_length_a                          12.78
_cell_length_b                          10.494
_cell_length_c                          15.87
_cell_angle_alpha                       90
_cell_angle_beta                        109.31
_cell_angle_gamma                       90
_symmetry_space_group_name_H-M          'P 1'
_symmetry_int_tables_number             1
loop_
  _symmetry_equiv_pos_as_xyz
         'x, y, z' 
loop_
  _atom_site_label
  _atom_site_occupancy
  _atom_site_fract_x
  _atom_site_fract_y
  _atom_site_fract_z
  _atom_site_thermal_displace_type
  _atom_site_B_iso_or_equiv
  _atom_site_type_symbol
  _atom_site_charge
         C1        1.0000    0.12640   0.89570   0.53840   Biso      1.000     C          0.22861599999999999           
         C2        1.0000    0.91770   0.08440   0.95790   Biso      1.000     C          -0.15109  
         C3        1.0000    0.58050   0.73320   0.44040   Biso      1.000     C          0.610322  
         C4        1.0000    0.53690   0.61230   0.46870   Biso      1.000     C          -0.027895           
         C5        1.0000    0.43790   0.41200   0.44090   Biso      1.000     C          -0.16256600000000002          
         C6        1.0000    0.47140   0.52230   0.40770   Biso      1.000     C          -0.03515  
         C7        1.0000    0.43300   0.54180   0.30790   Biso      1.000     C          0.5763520000000001  
         C8        1.0000    0.85620   0.96050   0.25620   Biso      1.000     C          -0.162718           
         C9        1.0000    0.87550   0.02500   0.33550   Biso      1.000     C          0.154124  
         C10       1.0000    0.29530   0.89650   0.40220   Biso      1.000     C          0.018146000000000002          
         C11       1.0000    0.89420   0.95640   0.95620   Biso      1.000     C          -0.133873           
         C12       1.0000    0.12870   0.78750   0.39470   Biso      1.000     C          -0.286556           
         C13       1.0000    0.12450   0.97500   0.66450   Biso      1.000     C          0.154121  
         C14       1.0000    0.14380   0.03950   0.74380   Biso      1.000     C          -0.162715           
         C15       1.0000    0.06730   0.02760   0.78740   Biso      1.000     C          -0.104806           
         C16       1.0000    0.97200   0.95310   0.75200   Biso      1.000     C          -0.101174           
         C17       1.0000    0.95060   0.88780   0.67330   Biso      1.000     C          -0.179999           
         C18       1.0000    0.02810   0.90080   0.62970   Biso      1.000     C          0.077068  
         C19       1.0000    0.94790   0.77020   0.49030   Biso      1.000     C          -0.146458           
         C20       1.0000    0.97600   0.63020   0.49810   Biso      1.000     C          0.094019  
         C21       1.0000    0.89420   0.54360   0.45620   Biso      1.000     C          -0.133875           
         C22       1.0000    0.16810   0.86920   0.46490   Biso      1.000     C          0.11778599999999999           
         C23       1.0000    0.97600   0.86980   0.99810   Biso      1.000     C          0.094019  
         C24       1.0000    0.94790   0.72980   0.99030   Biso      1.000     C          -0.146458           
         C25       1.0000    0.02810   0.59920   0.12970   Biso      1.000     C          0.077068  
         C26       1.0000    0.05210   0.22980   0.50970   Biso      1.000     C          -0.146458           
         C27       1.0000    0.02400   0.36980   0.50190   Biso      1.000     C          0.094019  
         C28       1.0000    0.10580   0.45640   0.54380   Biso      1.000     C          -0.133875           
         C29       1.0000    0.08230   0.58440   0.54210   Biso      1.000     C          -0.151087           
         C30       1.0000    0.41950   0.23320   0.05960   Biso      1.000     C          0.610322  
         C31       1.0000    0.46310   0.11230   0.03130   Biso      1.000     C          -0.027895           
         C32       1.0000    0.56210   0.91200   0.05910   Biso      1.000     C          -0.16256600000000002          
         C33       1.0000    0.52860   0.02230   0.09230   Biso      1.000     C          -0.03515  
         C34       1.0000    0.56700   0.04180   0.19210   Biso      1.000     C          0.5763520000000001  
         C35       1.0000    0.04940   0.11220   0.32670   Biso      1.000     C          -0.180004           
         C36       1.0000    0.02800   0.04690   0.24800   Biso      1.000     C          -0.101168           
         C37       1.0000    0.93270   0.97240   0.21260   Biso      1.000     C          -0.104806           
         C38       1.0000    0.29530   0.60350   0.90220   Biso      1.000     C          0.018146000000000002          
         C39       1.0000    0.12870   0.71250   0.89470   Biso      1.000     C          -0.286556           
         C40       1.0000    0.16810   0.63080   0.96490   Biso      1.000     C          0.11778599999999999           
         C41       1.0000    0.12640   0.60430   0.03840   Biso      1.000     C          0.22861599999999999           
         C42       1.0000    0.12450   0.52500   0.16450   Biso      1.000     C          0.154122  
         C43       1.0000    0.14380   0.46050   0.24380   Biso      1.000     C          -0.162715           
         C44       1.0000    0.06730   0.47240   0.28740   Biso      1.000     C          -0.104806           
         C45       1.0000    0.97200   0.54690   0.25200   Biso      1.000     C          -0.101174           
         C46       1.0000    0.95060   0.61220   0.17330   Biso      1.000     C          -0.179999           
         C47       1.0000    0.91770   0.41560   0.45790   Biso      1.000     C          -0.151087           
         C48       1.0000    0.58050   0.76680   0.94040   Biso      1.000     C          0.610321  
         C49       1.0000    0.97190   0.09920   0.37030   Biso      1.000     C          0.077068  
         C50       1.0000    0.10580   0.04360   0.04380   Biso      1.000     C          -0.133876           
         C51       1.0000    0.87130   0.21250   0.60530   Biso      1.000     C          -0.286556           
         C52       1.0000    0.70470   0.10350   0.59780   Biso      1.000     C          0.018146000000000002          
         C53       1.0000    0.70470   0.39650   0.09780   Biso      1.000     C          0.018146000000000002          
         C54       1.0000    0.02400   0.13020   0.00190   Biso      1.000     C          0.094019  
         C55       1.0000    0.05210   0.27020   0.00970   Biso      1.000     C          -0.146458           
         C56       1.0000    0.87130   0.28750   0.10530   Biso      1.000     C          -0.286556           
         C57       1.0000    0.08230   0.91560   0.04210   Biso      1.000     C          -0.151087           
         C58       1.0000    0.83190   0.36920   0.03510   Biso      1.000     C          0.11778599999999999           
         C59       1.0000    0.87550   0.47500   0.83550   Biso      1.000     C          0.154121  
         C60       1.0000    0.97190   0.40080   0.87030   Biso      1.000     C          0.077069  
         C61       1.0000    0.85620   0.53950   0.75620   Biso      1.000     C          -0.162715           
         C62       1.0000    0.04940   0.38780   0.82670   Biso      1.000     C          -0.180004           
         C63       1.0000    0.53690   0.88770   0.96870   Biso      1.000     C          -0.027895           
         C64       1.0000    0.93270   0.52760   0.71260   Biso      1.000     C          -0.104806           
         C65       1.0000    0.87360   0.39570   0.96160   Biso      1.000     C          0.22861599999999999           
         C66       1.0000    0.83190   0.13080   0.53510   Biso      1.000     C          0.11778599999999999           
         C67       1.0000    0.02800   0.45310   0.74800   Biso      1.000     C          -0.101168           
         C68       1.0000    0.87360   0.10430   0.46160   Biso      1.000     C          0.22861599999999999           
         C69       1.0000    0.41950   0.26680   0.55960   Biso      1.000     C          0.610322  
         C70       1.0000    0.43790   0.08800   0.94090   Biso      1.000     C          -0.16256600000000002          
         C71       1.0000    0.47140   0.97770   0.90770   Biso      1.000     C          -0.03515  
         C72       1.0000    0.43300   0.95820   0.80790   Biso      1.000     C          0.5763520000000001  
         C73       1.0000    0.56700   0.45820   0.69210   Biso      1.000     C          0.5763520000000001  
         C74       1.0000    0.52860   0.47770   0.59230   Biso      1.000     C          -0.035151           
         C75       1.0000    0.56210   0.58800   0.55910   Biso      1.000     C          -0.16256500000000002          
         C76       1.0000    0.46310   0.38770   0.53130   Biso      1.000     C          -0.027895           
         Cd1       1.0000    0.63880   0.96749   0.38754   Biso      1.000     Cd          0.9154389999999999  
         Cd2       1.0000    0.36120   0.46749   0.11246   Biso      1.000     Cd          0.9154389999999999  
         Cd3       1.0000    0.63880   0.53251   0.88754   Biso      1.000     Cd          0.9154389999999999  
         Cd4       1.0000    0.36120   0.03251   0.61246   Biso      1.000     Cd          0.9154389999999999  
         H1        1.0000    0.11240   0.33750   0.84970   Biso      1.000     H          0.134832  
         H2        1.0000    0.92170   0.55230   0.28280   Biso      1.000     H          0.102828  
         H3        1.0000    0.06470   0.20340   0.57080   Biso      1.000     H          0.123386  
         H4        1.0000    0.11240   0.16250   0.34970   Biso      1.000     H          0.134832  
         H5        1.0000    0.17750   0.42800   0.57350   Biso      1.000     H          0.131397  
         H6        1.0000    0.13850   0.85860   0.07080   Biso      1.000     H          0.115879  
         H7        1.0000    0.07920   0.43010   0.34130   Biso      1.000     H          0.104646  
         H8        1.0000    0.06460   0.76120   0.88290   Biso      1.000     H          0.15054   
         H9        1.0000    0.60330   0.64800   0.59960   Biso      1.000     H          0.12233699999999999           
         H10       1.0000    0.07830   0.05230   0.21720   Biso      1.000     H          0.102828  
         H11       1.0000    0.20680   0.41040   0.26730   Biso      1.000     H          0.139536  
         H12       1.0000    0.88760   0.66250   0.15030   Biso      1.000     H          0.134832  
         H13       1.0000    0.35890   0.57110   0.89380   Biso      1.000     H          0.143398  
         H14       1.0000    0.17750   0.07200   0.07350   Biso      1.000     H          0.131397  
         H15       1.0000    0.06470   0.29660   0.07080   Biso      1.000     H          0.123386  
         H16       1.0000    0.60330   0.85200   0.09960   Biso      1.000     H          0.12233699999999999           
         H17       1.0000    0.13850   0.64140   0.57080   Biso      1.000     H          0.115879  
         H18       1.0000    0.12100   0.28220   0.99750   Biso      1.000     H          0.133604  
         H19       1.0000    0.39670   0.14800   0.90040   Biso      1.000     H          0.12233699999999999           
         H20       1.0000    0.87900   0.71780   0.00250   Biso      1.000     H          0.133604  
         H21       1.0000    0.86150   0.35860   0.42920   Biso      1.000     H          0.115879  
         H22       1.0000    0.82250   0.57200   0.42650   Biso      1.000     H          0.131397  
         H23       1.0000    0.93530   0.79660   0.42920   Biso      1.000     H          0.123386  
         H24       1.0000    0.87900   0.78220   0.50250   Biso      1.000     H          0.133604  
         H25       1.0000    0.88760   0.83750   0.65030   Biso      1.000     H          0.134832  
         H26       1.0000    0.92170   0.94770   0.78280   Biso      1.000     H          0.102828  
         H27       1.0000    0.07920   0.06990   0.84130   Biso      1.000     H          0.104646  
         H28       1.0000    0.07830   0.44770   0.71720   Biso      1.000     H          0.102828  
         H29       1.0000    0.12100   0.21780   0.49750   Biso      1.000     H          0.133604  
         H30       1.0000    0.93540   0.26120   0.61710   Biso      1.000     H          0.15054   
         H31       1.0000    0.06460   0.73880   0.38290   Biso      1.000     H          0.15054   
         H32       1.0000    0.35890   0.92890   0.39380   Biso      1.000     H          0.143398  
         H33       1.0000    0.20680   0.08960   0.76730   Biso      1.000     H          0.139536  
         H34       1.0000    0.79320   0.91040   0.23270   Biso      1.000     H          0.139537  
         H35       1.0000    0.93530   0.70340   0.92920   Biso      1.000     H          0.12338699999999998           
         H36       1.0000    0.82250   0.92800   0.92650   Biso      1.000     H          0.131397  
         H37       1.0000    0.86150   0.14140   0.92920   Biso      1.000     H          0.115879  
         H38       1.0000    0.79320   0.58960   0.73270   Biso      1.000     H          0.139536  
         H39       1.0000    0.64110   0.42890   0.10620   Biso      1.000     H          0.143398  
         H40       1.0000    0.93540   0.23880   0.11710   Biso      1.000     H          0.15054   
         H41       1.0000    0.39670   0.35200   0.40040   Biso      1.000     H          0.12233699999999999           
         H42       1.0000    0.92080   0.93010   0.15870   Biso      1.000     H          0.104646  
         H43       1.0000    0.64110   0.07110   0.60620   Biso      1.000     H          0.143398  
         H44       1.0000    0.92080   0.56990   0.65870   Biso      1.000     H          0.104646  
         N1        1.0000    0.03140   0.64720   0.04910   Biso      1.000     N          -0.038718           
         N2        1.0000    0.81500   0.03030   0.39360   Biso      1.000     N          -0.395257           
         N3        1.0000    0.26370   0.93210   0.46870   Biso      1.000     N          -0.26360900000000004          
         N4        1.0000    0.73630   0.06790   0.53130   Biso      1.000     N          -0.26360900000000004          
         N5        1.0000    0.18500   0.96970   0.60640   Biso      1.000     N          -0.395257           
         N6        1.0000    0.03140   0.85280   0.54910   Biso      1.000     N          -0.038718           
         N7        1.0000    0.18500   0.53030   0.10640   Biso      1.000     N          -0.395257           
         N8        1.0000    0.26370   0.56790   0.96870   Biso      1.000     N          -0.26360900000000004          
         N9        1.0000    0.96860   0.35280   0.95090   Biso      1.000     N          -0.038718           
         N10       1.0000    0.81500   0.46970   0.89360   Biso      1.000     N          -0.395257           
         N11       1.0000    0.73630   0.43210   0.03130   Biso      1.000     N          -0.26360900000000004          
         N12       1.0000    0.96860   0.14720   0.45090   Biso      1.000     N          -0.038718           
         O1        1.0000    0.55050   0.66300   0.96480   Biso      1.000     O          -0.585445           
         O2        1.0000    0.64810   0.73120   0.39990   Biso      1.000     O          -0.571828           
         O3        1.0000    0.55050   0.83700   0.46480   Biso      1.000     O          -0.585445           
         O4        1.0000    0.41270   0.65300   0.28070   Biso      1.000     O          -0.5948640000000001           
         O5        1.0000    0.42130   0.44450   0.25980   Biso      1.000     O          -0.547254           
         O6        1.0000    0.35190   0.23120   0.10010   Biso      1.000     O          -0.571828           
         O7        1.0000    0.64810   0.76880   0.89990   Biso      1.000     O          -0.571828           
         O8        1.0000    0.41270   0.84700   0.78070   Biso      1.000     O          -0.5948640000000001           
         O9        1.0000    0.42130   0.05550   0.75980   Biso      1.000     O          -0.547254           
         O10       1.0000    0.44950   0.33700   0.03520   Biso      1.000     O          -0.585445           
         O11       1.0000    0.35190   0.26880   0.60010   Biso      1.000     O          -0.571828           
         O12       1.0000    0.44950   0.16300   0.53520   Biso      1.000     O          -0.585445           
         O13       1.0000    0.58730   0.34700   0.71930   Biso      1.000     O          -0.5948640000000001           
         O14       1.0000    0.57870   0.55550   0.74020   Biso      1.000     O          -0.547254           
         O15       1.0000    0.58730   0.15300   0.21930   Biso      1.000     O          -0.5948640000000001           
         O16       1.0000    0.57870   0.94450   0.24020   Biso      1.000     O          -0.547254           
         S1        1.0000    0.21320   0.78740   0.33173   Biso      1.000     S          0.295     
         S2        1.0000    0.78680   0.28740   0.16827   Biso      1.000     S          0.295001  
         S3        1.0000    0.21320   0.71260   0.83173   Biso      1.000     S          0.295     
         S4        1.0000    0.78680   0.21260   0.66827   Biso      1.000     S          0.295001 