
##########################################################################
#               Crystallographic Information Format file
#               Produced by PyCifRW module
#
#  This is a CIF file.  CIF has been adopted by the International
#  Union of Crystallography as the standard for data archiving and
#  transmission.
#
#  For information on this file format, follow the CIF links at
#  http://www.iucr.org
##########################################################################

data_image0

_cell_length_a                          8.6482
_cell_length_b                          10.3263
_cell_length_c                          12.9197
_cell_angle_alpha                       112.248
_cell_angle_beta                        108.035
_cell_angle_gamma                       93.5997
_symmetry_space_group_name_H-M          'P 1'
_symmetry_int_tables_number             1
loop_
  _symmetry_equiv_pos_as_xyz
         'x, y, z' 
loop_
  _atom_site_label
  _atom_site_occupancy
  _atom_site_fract_x
  _atom_site_fract_y
  _atom_site_fract_z
  _atom_site_thermal_displace_type
  _atom_site_B_iso_or_equiv
  _atom_site_type_symbol
  _atom_site_charge
         C1        1.0000    0.88731   0.98801   0.25502   Biso      1.000     C          -0.138371           
         C2        1.0000    0.14632   0.41372   0.02224   Biso      1.000     C          0.162303  
         C3        1.0000    0.32081   0.29351   0.06202   Biso      1.000     C          0.13229200000000002           
         C4        1.0000    0.89031   0.24341   0.27442   Biso      1.000     C          0.659381  
         C5        1.0000    0.83572   0.12872   0.30824   Biso      1.000     C          -0.353969           
         C6        1.0000    0.82977   0.88397   0.29574   Biso      1.000     C          -0.335958           
         C7        1.0000    0.87489   0.73899   0.25258   Biso      1.000     C          0.639573  
         C8        1.0000    0.25132   0.25612   0.53344   Biso      1.000     C          0.15604500000000002           
         C9        1.0000    0.37472   0.09392   0.46824   Biso      1.000     C          0.140781  
         C10       1.0000    0.62408   0.39148   0.97776   Biso      1.000     C          0.16230799999999998           
         C11       1.0000    0.75879   0.23149   0.93798   Biso      1.000     C          0.13078299999999998           
         C12       1.0000    0.11589   0.96899   0.72558   Biso      1.000     C          0.660508  
         C13       1.0000    0.02748   0.82048   0.69176   Biso      1.000     C          -0.354179           
         C14       1.0000    0.13229   0.73299   0.74498   Biso      1.000     C          -0.137271           
         C15       1.0000    0.03403   0.58823   0.70426   Biso      1.000     C          -0.336034           
         C16       1.0000    0.12231   0.48641   0.74742   Biso      1.000     C          0.638353  
         C17       1.0000    0.40648   0.62568   0.53176   Biso      1.000     C          0.138521  
         C18       1.0000    0.21788   0.72268   0.46656   Biso      1.000     C          0.154158  
         Cd1       1.0000    0.95596   0.47052   0.21379   Biso      1.000     Cd          0.795326  
         Cd2       1.0000    0.24217   0.25673   0.78621   Biso      1.000     Cd          0.795654  
         Cd3       1.0000    0.30865   0.28980   0.31237   Biso      1.000     Cd          0.8512139999999999  
         Cd4       1.0000    0.49628   0.97743   0.68763   Biso      1.000     Cd          0.851036  
         H1        1.0000    0.98560   0.76930   0.60500   Biso      1.000     H          0.139153  
         H2        1.0000    0.15590   0.79090   0.45800   Biso      1.000     H          0.106625  
         H3        1.0000    0.50370   0.61080   0.57820   Biso      1.000     H          0.1052    
         H4        1.0000    0.07670   0.45970   0.98380   Biso      1.000     H          0.11357300000000001           
         H5        1.0000    0.40020   0.23700   0.05720   Biso      1.000     H          0.102024  
         H6        1.0000    0.88060   0.16430   0.39500   Biso      1.000     H          0.138681  
         H7        1.0000    0.71560   0.11090   0.28320   Biso      1.000     H          0.12308   
         H8        1.0000    0.00730   0.00400   0.27920   Biso      1.000     H          0.084648  
         H9        1.0000    0.84020   0.94930   0.16820   Biso      1.000     H          0.09962599999999999           
         H10       1.0000    0.93240   0.82770   0.71680   Biso      1.000     H          0.122676  
         H11       1.0000    0.87410   0.92680   0.38280   Biso      1.000     H          0.130409  
         H12       1.0000    0.70970   0.86970   0.27060   Biso      1.000     H          0.12623099999999998           
         H13       1.0000    0.19790   0.33290   0.54200   Biso      1.000     H          0.105949  
         H14       1.0000    0.42550   0.03260   0.42180   Biso      1.000     H          0.105368  
         H15       1.0000    0.59290   0.47590   0.01620   Biso      1.000     H          0.11465399999999999           
         H16       1.0000    0.84300   0.17980   0.94280   Biso      1.000     H          0.102479  
         H17       1.0000    0.93910   0.59910   0.72940   Biso      1.000     H          0.125736  
         H18       1.0000    0.99130   0.54400   0.61720   Biso      1.000     H          0.130685  
         H19       1.0000    0.17200   0.78110   0.83180   Biso      1.000     H          0.09987599999999999           
         H20       1.0000    0.22810   0.72480   0.72080   Biso      1.000     H          0.084014  
         N1        1.0000    0.76935   0.35965   0.02370   Biso      1.000     N          -0.297348           
         N2        1.0000    0.52928   0.29168   0.87276   Biso      1.000     N          -0.203986           
         N3        1.0000    0.61772   0.18642   0.84664   Biso      1.000     N          -0.206963           
         N4        1.0000    0.31096   0.19846   0.44472   Biso      1.000     N          -0.32009499999999996          
         N5        1.0000    0.27643   0.19283   0.60646   Biso      1.000     N          -0.153561           
         N6        1.0000    0.35860   0.08650   0.56440   Biso      1.000     N          -0.232846           
         N7        1.0000    0.15652   0.41892   0.12724   Biso      1.000     N          -0.204074           
         N8        1.0000    0.27108   0.33978   0.15336   Biso      1.000     N          -0.207406           
         N9        1.0000    0.36624   0.75374   0.55528   Biso      1.000     N          -0.317714           
         N10       1.0000    0.16997   0.58637   0.39354   Biso      1.000     N          -0.153711           
         N11       1.0000    0.29420   0.52210   0.43560   Biso      1.000     N          -0.231127           
         N12       1.0000    0.24565   0.33595   0.97630   Biso      1.000     N          -0.296958           
         O1        1.0000    0.27680   0.51320   0.79880   Biso      1.000     O          -0.619905           
         O2        1.0000    0.00407   0.23507   0.23214   Biso      1.000     O          -0.622319           
         O3        1.0000    0.81894   0.34674   0.29068   Biso      1.000     O          -0.574732           
         O4        1.0000    0.97800   0.71440   0.20120   Biso      1.000     O          -0.620019           
         O5        1.0000    0.80946   0.64656   0.27532   Biso      1.000     O          -0.6063470000000001           
         O6        1.0000    0.27193   0.00293   0.76786   Biso      1.000     O          -0.62255  
         O7        1.0000    0.02826   0.05606   0.70932   Biso      1.000     O          -0.5756979999999999           
         O8        1.0000    0.03414   0.37124   0.72468   Biso      1.000     O          -0.605783 