
##########################################################################
#               Crystallographic Information Format file
#               Produced by PyCifRW module
#
#  This is a CIF file.  CIF has been adopted by the International
#  Union of Crystallography as the standard for data archiving and
#  transmission.
#
#  For information on this file format, follow the CIF links at
#  http://www.iucr.org
##########################################################################

data_image0

_cell_length_a                          11.5618
_cell_length_b                          11.8493
_cell_length_c                          15.7206
_cell_angle_alpha                       76.325
_cell_angle_beta                        71.246
_cell_angle_gamma                       65.33
_symmetry_space_group_name_H-M          'P 1'
_symmetry_int_tables_number             1
loop_
  _symmetry_equiv_pos_as_xyz
         'x, y, z' 
loop_
  _atom_site_label
  _atom_site_occupancy
  _atom_site_fract_x
  _atom_site_fract_y
  _atom_site_fract_z
  _atom_site_thermal_displace_type
  _atom_site_B_iso_or_equiv
  _atom_site_type_symbol
  _atom_site_charge
         C1        1.0000    0.72900   0.50300   0.03500   Biso      1.000     C          0.563645  
         C2        1.0000    0.09880   0.40250   0.26380   Biso      1.000     C          -0.203233           
         C3        1.0000    0.59650   0.59320   0.70370   Biso      1.000     C          -0.197913           
         C4        1.0000    0.98320   0.61090   0.44120   Biso      1.000     C          -0.137537           
         C5        1.0000    0.06840   0.03260   0.79220   Biso      1.000     C          0.090792  
         C6        1.0000    0.13220   0.05690   0.70320   Biso      1.000     C          -0.203748           
         C7        1.0000    0.58620   0.75150   0.52300   Biso      1.000     C          -0.134527           
         C8        1.0000    0.41380   0.24850   0.47700   Biso      1.000     C          -0.134527           
         C9        1.0000    0.98970   0.77160   0.97210   Biso      1.000     C          0.5558    
         C10       1.0000    0.74020   0.23470   0.96370   Biso      1.000     C          0.132357  
         C11       1.0000    0.25980   0.76530   0.03630   Biso      1.000     C          0.132357  
         C12       1.0000    0.27100   0.49700   0.96500   Biso      1.000     C          0.563646  
         C13       1.0000    0.22920   0.62390   0.99350   Biso      1.000     C          -0.036111000000000004         
         C14       1.0000    0.70160   0.93380   0.24680   Biso      1.000     C          -0.19867  
         C15       1.0000    0.75160   0.92380   0.31880   Biso      1.000     C          0.093931  
         C16       1.0000    0.93450   0.59940   0.17990   Biso      1.000     C          0.102434  
         C17       1.0000    0.31140   0.11460   0.58460   Biso      1.000     C          0.061861  
         C18       1.0000    0.88170   0.26670   0.00650   Biso      1.000     C          -0.030794           
         C19       1.0000    0.46530   0.28950   0.15190   Biso      1.000     C          0.090309  
         C20       1.0000    0.86780   0.94310   0.29680   Biso      1.000     C          -0.203748           
         C21       1.0000    0.44740   0.22410   0.23610   Biso      1.000     C          -0.20183900000000002          
         C22       1.0000    0.92950   0.60270   0.26800   Biso      1.000     C          -0.204485           
         C23       1.0000    0.97360   0.61060   0.53160   Biso      1.000     C          -0.14188599999999998          
         C24       1.0000    0.76830   0.95940   0.15920   Biso      1.000     C          0.089814  
         C25       1.0000    0.01310   0.50170   0.31310   Biso      1.000     C          0.10880999999999999           
         C26       1.0000    0.68860   0.88540   0.41540   Biso      1.000     C          0.06186900000000001           
         C27       1.0000    0.01680   0.38910   0.55880   Biso      1.000     C          -0.137537           
         C28       1.0000    0.01030   0.22840   0.02790   Biso      1.000     C          0.555802  
         C29       1.0000    0.29550   0.07700   0.51390   Biso      1.000     C          -0.136174           
         C30       1.0000    0.98690   0.49830   0.68690   Biso      1.000     C          0.10880999999999999           
         C31       1.0000    0.62660   0.80180   0.43460   Biso      1.000     C          -0.13758099999999998          
         C32       1.0000    0.38890   0.21710   0.40570   Biso      1.000     C          0.067202  
         C33       1.0000    0.66600   0.87270   0.57470   Biso      1.000     C          -0.14248  
         C34       1.0000    0.40350   0.40680   0.29630   Biso      1.000     C          -0.19791199999999998          
         C35       1.0000    0.02640   0.38940   0.46840   Biso      1.000     C          -0.14188699999999999          
         C36       1.0000    0.00760   0.50020   0.40890   Biso      1.000     C          0.066679  
         C37       1.0000    0.23170   0.04060   0.84080   Biso      1.000     C          0.089809  
         C38       1.0000    0.09790   0.40700   0.17570   Biso      1.000     C          0.101164  
         C39       1.0000    0.90210   0.59300   0.82430   Biso      1.000     C          0.101161  
         C40       1.0000    0.77080   0.37610   0.00650   Biso      1.000     C          -0.036108           
         C41       1.0000    0.70450   0.92300   0.48610   Biso      1.000     C          -0.13617  
         C42       1.0000    0.41550   0.28090   0.31290   Biso      1.000     C          0.098088  
         C43       1.0000    0.42190   0.46670   0.21060   Biso      1.000     C          0.089882  
         C44       1.0000    0.06550   0.40060   0.82010   Biso      1.000     C          0.102434  
         C45       1.0000    0.55260   0.77590   0.76390   Biso      1.000     C          -0.201851           
         C46       1.0000    0.24840   0.07620   0.68120   Biso      1.000     C          0.093939  
         C47       1.0000    0.53470   0.71050   0.84810   Biso      1.000     C          0.090321  
         C48       1.0000    0.57810   0.53330   0.78940   Biso      1.000     C          0.089882  
         C49       1.0000    0.58450   0.71910   0.68710   Biso      1.000     C          0.098089  
         C50       1.0000    0.29840   0.06620   0.75320   Biso      1.000     C          -0.198663           
         C51       1.0000    0.11830   0.73330   0.99350   Biso      1.000     C          -0.030788           
         C52       1.0000    0.90120   0.59750   0.73620   Biso      1.000     C          -0.20323  
         C53       1.0000    0.33400   0.12730   0.42530   Biso      1.000     C          -0.142473           
         C54       1.0000    0.07050   0.39730   0.73200   Biso      1.000     C          -0.204484           
         C55       1.0000    0.61110   0.78290   0.59430   Biso      1.000     C          0.06720599999999999           
         C56       1.0000    0.93160   0.96740   0.20780   Biso      1.000     C          0.090796  
         C57       1.0000    0.37340   0.19820   0.56540   Biso      1.000     C          -0.13758099999999998          
         C58       1.0000    0.99240   0.49980   0.59110   Biso      1.000     C          0.066679  
         Co1       1.0000    0.50000   0.50000   0.00000   Biso      1.000     Co          0.532751  
         Co2       1.0000    0.00000   0.50000   0.00000   Biso      1.000     Co          0.721413  
         Co3       1.0000    0.00000   0.00000   0.00000   Biso      1.000     Co          0.526366  
         H1        1.0000    0.38870   0.22170   0.61330   Biso      1.000     H          0.11482300000000001           
         H2        1.0000    0.61130   0.77830   0.38670   Biso      1.000     H          0.11482300000000001           
         H3        1.0000    0.04590   0.31350   0.44670   Biso      1.000     H          0.11097   
         H4        1.0000    0.01240   0.97870   0.19510   Biso      1.000     H          0.10486400000000001           
         H5        1.0000    0.37910   0.07710   0.74190   Biso      1.000     H          0.121549  
         H6        1.0000    0.45840   0.30440   0.46470   Biso      1.000     H          0.11640199999999999           
         H7        1.0000    0.98760   0.02130   0.80490   Biso      1.000     H          0.10486400000000001           
         H8        1.0000    0.13080   0.32630   0.70210   Biso      1.000     H          0.112204  
         H9        1.0000    0.15820   0.33120   0.29110   Biso      1.000     H          0.114347  
         H10       1.0000    0.02670   0.31370   0.59900   Biso      1.000     H          0.10970099999999999           
         H11       1.0000    0.29950   0.80590   0.05700   Biso      1.000     H          0.087926  
         H12       1.0000    0.15820   0.33790   0.14360   Biso      1.000     H          0.10385699999999999           
         H13       1.0000    0.32260   0.09990   0.37750   Biso      1.000     H          0.113722  
         H14       1.0000    0.38200   0.45090   0.34590   Biso      1.000     H          0.12150899999999999           
         H15       1.0000    0.95410   0.68650   0.55330   Biso      1.000     H          0.11097   
         H16       1.0000    0.41210   0.55190   0.20260   Biso      1.000     H          0.102056  
         H17       1.0000    0.12400   0.33040   0.84890   Biso      1.000     H          0.095524  
         H18       1.0000    0.48740   0.24740   0.10110   Biso      1.000     H          0.101316  
         H19       1.0000    0.90480   0.93950   0.34370   Biso      1.000     H          0.117899  
         H20       1.0000    0.67740   0.90010   0.62250   Biso      1.000     H          0.113723  
         H21       1.0000    0.26820   0.03410   0.88880   Biso      1.000     H          0.106307  
         H22       1.0000    0.86920   0.67370   0.29790   Biso      1.000     H          0.112204  
         H23       1.0000    0.54160   0.69560   0.53530   Biso      1.000     H          0.11640199999999999           
         H24       1.0000    0.97330   0.68630   0.40100   Biso      1.000     H          0.10970099999999999           
         H25       1.0000    0.70050   0.19410   0.94300   Biso      1.000     H          0.087926  
         H26       1.0000    0.87600   0.66960   0.15110   Biso      1.000     H          0.095524  
         H27       1.0000    0.84180   0.66880   0.70890   Biso      1.000     H          0.114347  
         H28       1.0000    0.54320   0.86080   0.75780   Biso      1.000     H          0.118095  
         H29       1.0000    0.58790   0.44810   0.79740   Biso      1.000     H          0.102056  
         H30       1.0000    0.74250   0.98430   0.47400   Biso      1.000     H          0.11264300000000001           
         H31       1.0000    0.61800   0.54910   0.65410   Biso      1.000     H          0.12150899999999999           
         H32       1.0000    0.73180   0.96590   0.11120   Biso      1.000     H          0.106307  
         H33       1.0000    0.25750   0.01570   0.52600   Biso      1.000     H          0.11264300000000001           
         H34       1.0000    0.09520   0.06050   0.65630   Biso      1.000     H          0.117899  
         H35       1.0000    0.62090   0.92290   0.25810   Biso      1.000     H          0.121549  
         H36       1.0000    0.84180   0.66210   0.85640   Biso      1.000     H          0.10385699999999999           
         H37       1.0000    0.45680   0.13920   0.24220   Biso      1.000     H          0.118094  
         H38       1.0000    0.51260   0.75260   0.89890   Biso      1.000     H          0.101315  
         N1        1.0000    0.54670   0.58900   0.86340   Biso      1.000     N          -0.17265  
         N2        1.0000    0.86010   0.17690   0.98010   Biso      1.000     N          -0.29780700000000004          
         N3        1.0000    0.45330   0.41100   0.13660   Biso      1.000     N          -0.172649           
         N4        1.0000    0.13990   0.82310   0.01990   Biso      1.000     N          -0.29780700000000004          
         N5        1.0000    0.11700   0.02430   0.86110   Biso      1.000     N          -0.174427           
         N6        1.0000    0.98400   0.49590   0.86760   Biso      1.000     N          -0.182703           
         N7        1.0000    0.88300   0.97570   0.13890   Biso      1.000     N          -0.174428           
         N8        1.0000    0.68220   0.35450   0.97920   Biso      1.000     N          -0.286968           
         N9        1.0000    0.01600   0.50410   0.13240   Biso      1.000     N          -0.182703           
         N10       1.0000    0.31780   0.64550   0.02080   Biso      1.000     N          -0.286967           
         O1        1.0000    0.92580   0.89020   0.96110   Biso      1.000     O          -0.5225270000000001           
         O2        1.0000    0.19460   0.46810   0.94220   Biso      1.000     O          -0.518131           
         O3        1.0000    0.05500   0.30610   0.03210   Biso      1.000     O          -0.511835           
         O4        1.0000    0.38950   0.42540   0.96290   Biso      1.000     O          -0.514749           
         O5        1.0000    0.94500   0.69390   0.96790   Biso      1.000     O          -0.511834           
         O6        1.0000    0.80540   0.53190   0.05780   Biso      1.000     O          -0.518131           
         O7        1.0000    0.07420   0.10980   0.03890   Biso      1.000     O          -0.5225270000000001           
         O8        1.0000    0.61050   0.57460   0.03710   Biso      1.000     O          -0.514749 