
##########################################################################
#               Crystallographic Information Format file
#               Produced by PyCifRW module
#
#  This is a CIF file.  CIF has been adopted by the International
#  Union of Crystallography as the standard for data archiving and
#  transmission.
#
#  For information on this file format, follow the CIF links at
#  http://www.iucr.org
##########################################################################

data_image0

_cell_length_a                          9.433
_cell_length_b                          16.264
_cell_length_c                          24.124
_cell_angle_alpha                       108.312
_cell_angle_beta                        90
_cell_angle_gamma                       90
_symmetry_space_group_name_H-M          'P 1'
_symmetry_int_tables_number             1
loop_
  _symmetry_equiv_pos_as_xyz
         'x, y, z' 
loop_
  _atom_site_label
  _atom_site_occupancy
  _atom_site_fract_x
  _atom_site_fract_y
  _atom_site_fract_z
  _atom_site_thermal_displace_type
  _atom_site_B_iso_or_equiv
  _atom_site_type_symbol
  _atom_site_charge
         C1        1.0000    0.68700   0.88570   0.96370   Biso      1.000     C          0.632622  
         C2        1.0000    0.61680   0.70520   0.76830   Biso      1.000     C          0.127059  
         C3        1.0000    0.38320   0.29480   0.23170   Biso      1.000     C          0.12706   
         C4        1.0000    0.53080   0.97300   0.60170   Biso      1.000     C          -0.012117           
         C5        1.0000    0.55930   0.79590   0.71140   Biso      1.000     C          -0.024504           
         C6        1.0000    0.29480   0.36150   0.21640   Biso      1.000     C          0.607858  
         C7        1.0000    0.28650   0.52620   0.83800   Biso      1.000     C          0.577221  
         C8        1.0000    0.68840   0.83370   0.34080   Biso      1.000     C          0.560599  
         C9        1.0000    0.42060   0.89600   0.51110   Biso      1.000     C          0.103614  
         C10       1.0000    0.42750   0.79860   0.79570   Biso      1.000     C          0.131772  
         C11       1.0000    0.57690   0.42970   0.93660   Biso      1.000     C          -0.13815  
         C12       1.0000    0.53080   0.02700   0.89830   Biso      1.000     C          -0.012117           
         C13       1.0000    0.44070   0.20410   0.28860   Biso      1.000     C          -0.024504           
         C14       1.0000    0.68700   0.11430   0.53630   Biso      1.000     C          0.632622  
         C15       1.0000    0.57940   0.89600   0.01110   Biso      1.000     C          0.103614  
         C16       1.0000    0.57380   0.03110   0.44000   Biso      1.000     C          -0.140571           
         C17       1.0000    0.61230   0.51270   0.12850   Biso      1.000     C          0.120709  
         C18       1.0000    0.68640   0.57930   0.96640   Biso      1.000     C          0.625098  
         C19       1.0000    0.35600   0.73320   0.22100   Biso      1.000     C          -0.140237           
         C20       1.0000    0.52790   0.62580   0.09460   Biso      1.000     C          -0.007612           
         C21       1.0000    0.37710   0.40260   0.87230   Biso      1.000     C          -0.120569           
         C22       1.0000    0.57940   0.10400   0.48890   Biso      1.000     C          0.103614  
         C23       1.0000    0.44660   0.82890   0.74900   Biso      1.000     C          -0.146467           
         C24       1.0000    0.62430   0.90460   0.59290   Biso      1.000     C          -0.149147           
         C25       1.0000    0.31160   0.83370   0.84080   Biso      1.000     C          0.560599  
         C26       1.0000    0.38850   0.83420   0.04270   Biso      1.000     C          0.128369  
         C27       1.0000    0.31360   0.42070   0.03360   Biso      1.000     C          0.625099  
         C28       1.0000    0.62290   0.59740   0.12770   Biso      1.000     C          -0.120566           
         C29       1.0000    0.31300   0.88570   0.46370   Biso      1.000     C          0.632622  
         C30       1.0000    0.64400   0.26680   0.77900   Biso      1.000     C          -0.140237           
         C31       1.0000    0.42010   0.48670   0.06650   Biso      1.000     C          0.095535  
         C32       1.0000    0.42310   0.57030   0.06340   Biso      1.000     C          -0.138147           
         C33       1.0000    0.55340   0.82890   0.24900   Biso      1.000     C          -0.14647  
         C34       1.0000    0.47210   0.62580   0.59460   Biso      1.000     C          -0.007612           
         C35       1.0000    0.38850   0.16580   0.45730   Biso      1.000     C          0.128369  
         C36       1.0000    0.42750   0.20140   0.70430   Biso      1.000     C          0.131772  
         C37       1.0000    0.55340   0.17110   0.25100   Biso      1.000     C          -0.14647  
         C38       1.0000    0.61150   0.83420   0.54270   Biso      1.000     C          0.128369  
         C39       1.0000    0.42620   0.03110   0.94000   Biso      1.000     C          -0.140571           
         C40       1.0000    0.68840   0.16630   0.15920   Biso      1.000     C          0.560599  
         C41       1.0000    0.28650   0.47380   0.66200   Biso      1.000     C          0.577221  
         C42       1.0000    0.61230   0.48730   0.37150   Biso      1.000     C          0.120709  
         C43       1.0000    0.57690   0.57030   0.56340   Biso      1.000     C          -0.13815  
         C44       1.0000    0.35600   0.26680   0.27900   Biso      1.000     C          -0.14023  
         C45       1.0000    0.57250   0.79860   0.29570   Biso      1.000     C          0.131775  
         C46       1.0000    0.55930   0.20410   0.78860   Biso      1.000     C          -0.0245   
         C47       1.0000    0.70520   0.36150   0.71640   Biso      1.000     C          0.607858  
         C48       1.0000    0.31360   0.57930   0.46640   Biso      1.000     C          0.625098  
         C49       1.0000    0.37710   0.59740   0.62770   Biso      1.000     C          -0.120566           
         C50       1.0000    0.37570   0.09540   0.40710   Biso      1.000     C          -0.149147           
         C51       1.0000    0.64400   0.73320   0.72100   Biso      1.000     C          -0.14023  
         C52       1.0000    0.62290   0.40260   0.37230   Biso      1.000     C          -0.120569           
         C53       1.0000    0.71350   0.47380   0.16200   Biso      1.000     C          0.577221  
         C54       1.0000    0.29360   0.75600   0.02930   Biso      1.000     C          0.546708  
         C55       1.0000    0.29360   0.24400   0.47070   Biso      1.000     C          0.546708  
         C56       1.0000    0.46920   0.97300   0.10170   Biso      1.000     C          -0.012117           
         C57       1.0000    0.31160   0.16630   0.65920   Biso      1.000     C          0.560599  
         C58       1.0000    0.70520   0.63850   0.78360   Biso      1.000     C          0.607858  
         C59       1.0000    0.57250   0.20140   0.20430   Biso      1.000     C          0.131775  
         C60       1.0000    0.62430   0.09540   0.90710   Biso      1.000     C          -0.149147           
         C61       1.0000    0.29480   0.63850   0.28360   Biso      1.000     C          0.607858  
         C62       1.0000    0.42310   0.42970   0.43660   Biso      1.000     C          -0.13815  
         C63       1.0000    0.46920   0.02700   0.39830   Biso      1.000     C          -0.012117           
         C64       1.0000    0.31300   0.11430   0.03630   Biso      1.000     C          0.632622  
         C65       1.0000    0.57380   0.96890   0.06000   Biso      1.000     C          -0.14057  
         C66       1.0000    0.57990   0.51330   0.93350   Biso      1.000     C          0.095538  
         C67       1.0000    0.71350   0.52620   0.33800   Biso      1.000     C          0.577221  
         C68       1.0000    0.44070   0.79590   0.21140   Biso      1.000     C          -0.0245   
         C69       1.0000    0.42010   0.51330   0.43350   Biso      1.000     C          0.095538  
         C70       1.0000    0.38770   0.51270   0.62850   Biso      1.000     C          0.120709  
         C71       1.0000    0.70640   0.24400   0.97070   Biso      1.000     C          0.546708  
         C72       1.0000    0.61150   0.16580   0.95730   Biso      1.000     C          0.12837   
         C73       1.0000    0.52790   0.37420   0.40540   Biso      1.000     C          -0.007609           
         C74       1.0000    0.47210   0.37420   0.90540   Biso      1.000     C          -0.007609           
         C75       1.0000    0.68640   0.42070   0.53360   Biso      1.000     C          0.625098  
         C76       1.0000    0.61680   0.29480   0.73170   Biso      1.000     C          0.127063  
         C77       1.0000    0.57990   0.48670   0.56650   Biso      1.000     C          0.095538  
         C78       1.0000    0.42620   0.96890   0.56000   Biso      1.000     C          -0.14057  
         C79       1.0000    0.44660   0.17110   0.75100   Biso      1.000     C          -0.146468           
         C80       1.0000    0.70640   0.75600   0.52930   Biso      1.000     C          0.546708  
         C81       1.0000    0.38320   0.70520   0.26830   Biso      1.000     C          0.127063  
         C82       1.0000    0.37570   0.90460   0.09290   Biso      1.000     C          -0.149147           
         C83       1.0000    0.42060   0.10400   0.98890   Biso      1.000     C          0.103614  
         C84       1.0000    0.38770   0.48730   0.87150   Biso      1.000     C          0.120709  
         Ca1       1.0000    0.99415   0.50000   0.75000   Biso      1.000     Ca          1.381452  
         Ca2       1.0000    0.00000   0.50000   0.50000   Biso      1.000     Ca          1.641315  
         Ca3       1.0000    0.00000   0.00000   0.00000   Biso      1.000     Ca          1.653673  
         Ca4       1.0000    0.00000   0.50000   0.00000   Biso      1.000     Ca          1.641315  
         Ca5       1.0000    0.00585   0.50000   0.25000   Biso      1.000     Ca          1.381452  
         Ca6       1.0000    0.00000   0.00000   0.50000   Biso      1.000     Ca          1.653674  
         Ce1       1.0000    0.49117   0.29771   0.59669   Biso      1.000     Ce          1.848392  
         Ce2       1.0000    0.50883   0.70229   0.40331   Biso      1.000     Ce          1.848392  
         Ce3       1.0000    0.50883   0.29771   0.09669   Biso      1.000     Ce          1.848392  
         Ce4       1.0000    0.49117   0.70229   0.90331   Biso      1.000     Ce          1.848392  
         H1        1.0000    0.58500   0.82800   0.68300   Biso      1.000     H          0.102455  
         H2        1.0000    0.47200   0.02400   0.13600   Biso      1.000     H          0.116464  
         H3        1.0000    0.37000   0.97900   0.93400   Biso      1.000     H          0.123207  
         H4        1.0000    0.63000   0.02100   0.06600   Biso      1.000     H          0.123207  
         H5        1.0000    0.71890   0.70980   0.69590   Biso      1.000     H          0.134964  
         H6        1.0000    0.52800   0.02400   0.63600   Biso      1.000     H          0.116464  
         H7        1.0000    0.67900   0.09700   0.87300   Biso      1.000     H          0.128863  
         H8        1.0000    0.71100   0.63600   0.14300   Biso      1.000     H          0.131508  
         H9        1.0000    0.13600   0.36300   0.69000   Biso      1.000     H          0.45767   
         H10       1.0000    0.00200   0.63000   0.29100   Biso      1.000     H          0.397329  
         H11       1.0000    0.47200   0.97600   0.36400   Biso      1.000     H          0.116464  
         H12       1.0000    0.28110   0.29020   0.30410   Biso      1.000     H          0.134964  
         H13       1.0000    0.28110   0.70980   0.19590   Biso      1.000     H          0.134965  
         H14       1.0000    0.58500   0.17200   0.81700   Biso      1.000     H          0.102454  
         H15       1.0000    0.36700   0.57500   0.03300   Biso      1.000     H          0.121468  
         H16       1.0000    0.32100   0.90300   0.12700   Biso      1.000     H          0.128863  
         H17       1.0000    0.37700   0.87500   0.74600   Biso      1.000     H          0.131949  
         H18       1.0000    0.37000   0.02100   0.56600   Biso      1.000     H          0.123207  
         H19       1.0000    0.37700   0.12500   0.75400   Biso      1.000     H          0.131948  
         H20       1.0000    0.52800   0.97600   0.86400   Biso      1.000     H          0.116464  
         H21       1.0000    0.36700   0.42500   0.46700   Biso      1.000     H          0.121468  
         H22       1.0000    0.63300   0.57500   0.53300   Biso      1.000     H          0.121468  
         H23       1.0000    0.00200   0.37000   0.20900   Biso      1.000     H          0.397329  
         H24       1.0000    0.53360   0.31790   0.40690   Biso      1.000     H          0.118886  
         H25       1.0000    0.71100   0.36400   0.35700   Biso      1.000     H          0.131508  
         H26       1.0000    0.62300   0.12500   0.25400   Biso      1.000     H          0.131949  
         H27       1.0000    0.28900   0.63600   0.64300   Biso      1.000     H          0.131508  
         H28       1.0000    0.99800   0.37000   0.70900   Biso      1.000     H          0.397329  
         H29       1.0000    0.86400   0.36300   0.19000   Biso      1.000     H          0.45767   
         H30       1.0000    0.53360   0.68210   0.09310   Biso      1.000     H          0.118887  
         H31       1.0000    0.32100   0.09700   0.37300   Biso      1.000     H          0.128863  
         H32       1.0000    0.41500   0.17200   0.31700   Biso      1.000     H          0.102454  
         H33       1.0000    0.46640   0.68210   0.59310   Biso      1.000     H          0.118886  
         H34       1.0000    0.28900   0.36400   0.85700   Biso      1.000     H          0.131508  
         H35       1.0000    0.99800   0.63000   0.79100   Biso      1.000     H          0.397329  
         H36       1.0000    0.86400   0.63700   0.31000   Biso      1.000     H          0.45767   
         H37       1.0000    0.67900   0.90300   0.62700   Biso      1.000     H          0.128863  
         H38       1.0000    0.63000   0.97900   0.43400   Biso      1.000     H          0.123207  
         H39       1.0000    0.62300   0.87500   0.24600   Biso      1.000     H          0.131948  
         H40       1.0000    0.63300   0.42500   0.96700   Biso      1.000     H          0.121468  
         H41       1.0000    0.46640   0.31790   0.90690   Biso      1.000     H          0.118886  
         H42       1.0000    0.71890   0.29020   0.80410   Biso      1.000     H          0.134965  
         H43       1.0000    0.13600   0.63700   0.81000   Biso      1.000     H          0.45767   
         H44       1.0000    0.41500   0.82800   0.18300   Biso      1.000     H          0.102454  
         N1        1.0000    0.51390   0.45830   0.09780   Biso      1.000     N          -0.323985           
         N2        1.0000    0.48940   0.73800   0.30560   Biso      1.000     N          -0.339885           
         N3        1.0000    0.48610   0.45830   0.59780   Biso      1.000     N          -0.323985           
         N4        1.0000    0.51060   0.73800   0.80560   Biso      1.000     N          -0.339884           
         N5        1.0000    0.48940   0.26200   0.19440   Biso      1.000     N          -0.339885           
         N6        1.0000    0.51300   0.16950   0.99810   Biso      1.000     N          -0.332845           
         N7        1.0000    0.48700   0.16950   0.49810   Biso      1.000     N          -0.332845           
         N8        1.0000    0.51390   0.54170   0.40220   Biso      1.000     N          -0.323985           
         N9        1.0000    0.51060   0.26200   0.69440   Biso      1.000     N          -0.339885           
         N10       1.0000    0.48700   0.83050   0.00190   Biso      1.000     N          -0.332845           
         N11       1.0000    0.48610   0.54170   0.90220   Biso      1.000     N          -0.323985           
         N12       1.0000    0.51300   0.83050   0.50190   Biso      1.000     N          -0.332845           
         O1        1.0000    0.66830   0.65610   0.96510   Biso      1.000     O          -0.588571           
         O2        1.0000    0.21780   0.05930   0.02860   Biso      1.000     O          -0.743249           
         O3        1.0000    0.67230   0.82110   0.91858   Biso      1.000     O          -0.586337           
         O4        1.0000    0.30710   0.29920   0.52080   Biso      1.000     O          -0.665241           
         O5        1.0000    0.21110   0.75000   0.06820   Biso      1.000     O          -0.605861           
         O6        1.0000    0.69290   0.70080   0.47920   Biso      1.000     O          -0.665241           
         O7        1.0000    0.78220   0.94070   0.97140   Biso      1.000     O          -0.743249           
         O8        1.0000    0.67810   0.37240   0.66788   Biso      1.000     O          -0.642976           
         O9        1.0000    0.07670   0.34910   0.70930   Biso      1.000     O          -0.854689           
         O10       1.0000    0.78240   0.55590   0.99291   Biso      1.000     O          -0.736247           
         O11       1.0000    0.31440   0.80700   0.88535   Biso      1.000     O          -0.677192           
         O12       1.0000    0.30710   0.70080   0.97920   Biso      1.000     O          -0.665241           
         O13       1.0000    0.69170   0.60500   0.34270   Biso      1.000     O          -0.605657           
         O14       1.0000    0.78890   0.25000   0.93180   Biso      1.000     O          -0.605861           
         O15       1.0000    0.78240   0.44410   0.50709   Biso      1.000     O          -0.736247           
         O16       1.0000    0.69170   0.39500   0.15730   Biso      1.000     O          -0.605657           
         O17       1.0000    0.67230   0.17890   0.58142   Biso      1.000     O          -0.586337           
         O18       1.0000    0.32770   0.17890   0.08142   Biso      1.000     O          -0.586337           
         O19       1.0000    0.32190   0.62760   0.33212   Biso      1.000     O          -0.642976           
         O20       1.0000    0.19090   0.51940   0.69075   Biso      1.000     O          -0.618763           
         O21       1.0000    0.67810   0.62760   0.83212   Biso      1.000     O          -0.642976           
         O22       1.0000    0.66830   0.34390   0.53490   Biso      1.000     O          -0.588571           
         O23       1.0000    0.30830   0.39500   0.65730   Biso      1.000     O          -0.605657           
         O24       1.0000    0.21760   0.55590   0.49291   Biso      1.000     O          -0.736247           
         O25       1.0000    0.20270   0.40070   0.25129   Biso      1.000     O          -0.626518           
         O26       1.0000    0.20270   0.59930   0.24871   Biso      1.000     O          -0.626518           
         O27       1.0000    0.22640   0.11450   0.66790   Biso      1.000     O          -0.581163           
         O28       1.0000    0.31440   0.19300   0.61465   Biso      1.000     O          -0.677192           
         O29       1.0000    0.07670   0.65090   0.79070   Biso      1.000     O          -0.854689           
         O30       1.0000    0.21110   0.25000   0.43180   Biso      1.000     O          -0.605861           
         O31       1.0000    0.92330   0.65090   0.29070   Biso      1.000     O          -0.854689           
         O32       1.0000    0.77360   0.88550   0.33210   Biso      1.000     O          -0.581163           
         O33       1.0000    0.68560   0.19300   0.11465   Biso      1.000     O          -0.677192           
         O34       1.0000    0.79730   0.40070   0.75129   Biso      1.000     O          -0.626518           
         O35       1.0000    0.80910   0.51940   0.19075   Biso      1.000     O          -0.618763           
         O36       1.0000    0.80910   0.48060   0.30925   Biso      1.000     O          -0.618763           
         O37       1.0000    0.77360   0.11450   0.16790   Biso      1.000     O          -0.581163           
         O38       1.0000    0.69290   0.29920   0.02080   Biso      1.000     O          -0.66524  
         O39       1.0000    0.92330   0.34910   0.20930   Biso      1.000     O          -0.854689           
         O40       1.0000    0.78890   0.75000   0.56820   Biso      1.000     O          -0.605861           
         O41       1.0000    0.79730   0.59930   0.74871   Biso      1.000     O          -0.626518           
         O42       1.0000    0.32190   0.37240   0.16788   Biso      1.000     O          -0.642976           
         O43       1.0000    0.33170   0.34390   0.03490   Biso      1.000     O          -0.588571           
         O44       1.0000    0.19090   0.48060   0.80925   Biso      1.000     O          -0.618763           
         O45       1.0000    0.68560   0.80700   0.38535   Biso      1.000     O          -0.677192           
         O46       1.0000    0.33170   0.65610   0.46510   Biso      1.000     O          -0.588571           
         O47       1.0000    0.21780   0.94070   0.47140   Biso      1.000     O          -0.743249           
         O48       1.0000    0.30830   0.60500   0.84270   Biso      1.000     O          -0.605657           
         O49       1.0000    0.21760   0.44410   0.00709   Biso      1.000     O          -0.736247           
         O50       1.0000    0.22640   0.88550   0.83210   Biso      1.000     O          -0.581163           
         O51       1.0000    0.32770   0.82110   0.41858   Biso      1.000     O          -0.586337           
         O52       1.0000    0.78220   0.05930   0.52860   Biso      1.000     O          -0.743249 