
##########################################################################
#               Crystallographic Information Format file
#               Produced by PyCifRW module
#
#  This is a CIF file.  CIF has been adopted by the International
#  Union of Crystallography as the standard for data archiving and
#  transmission.
#
#  For information on this file format, follow the CIF links at
#  http://www.iucr.org
##########################################################################

data_image0

_cell_length_a                          10.1719
_cell_length_b                          11.5557
_cell_length_c                          15.2081
_cell_angle_alpha                       106.021
_cell_angle_beta                        109.251
_cell_angle_gamma                       90.597
_symmetry_space_group_name_H-M          'P 1'
_symmetry_int_tables_number             1
loop_
  _symmetry_equiv_pos_as_xyz
         'x, y, z' 
loop_
  _atom_site_label
  _atom_site_occupancy
  _atom_site_fract_x
  _atom_site_fract_y
  _atom_site_fract_z
  _atom_site_thermal_displace_type
  _atom_site_B_iso_or_equiv
  _atom_site_type_symbol
  _atom_site_charge
         Ba1       1.0000    0.59341   0.75256   0.34017   Biso      1.000     Ba          1.493105  
         Ba2       1.0000    0.88854   0.32830   0.88423   Biso      1.000     Ba          1.5915350000000001  
         Ba3       1.0000    0.40660   0.24744   0.65983   Biso      1.000     Ba          1.493114  
         Ba4       1.0000    0.11146   0.67170   0.11577   Biso      1.000     Ba          1.591536  
         C1        1.0000    0.23740   0.97780   0.85010   Biso      1.000     C          -0.018474           
         C2        1.0000    0.77060   0.80720   0.59669   Biso      1.000     C          0.582079  
         C3        1.0000    0.17250   0.93760   0.90490   Biso      1.000     C          -0.12071400000000002          
         C4        1.0000    0.49980   0.77210   0.94550   Biso      1.000     C          0.57738   
         C5        1.0000    0.67620   0.18940   0.40430   Biso      1.000     C          0.12706199999999998           
         C6        1.0000    0.17100   0.66120   0.45480   Biso      1.000     C          -0.052777           
         C7        1.0000    0.99460   0.70240   0.62890   Biso      1.000     C          -0.13858499999999999          
         C8        1.0000    0.50020   0.22790   0.05450   Biso      1.000     C          0.57738   
         C9        1.0000    0.25230   0.57460   0.48480   Biso      1.000     C          -0.133857           
         C10       1.0000    0.63220   0.38860   0.43036   Biso      1.000     C          0.12978199999999998           
         C11       1.0000    0.08610   0.64020   0.68380   Biso      1.000     C          -0.014117           
         C12       1.0000    0.46360   0.52260   0.60662   Biso      1.000     C          0.571838  
         C13       1.0000    0.82900   0.33880   0.54520   Biso      1.000     C          -0.052778           
         C14       1.0000    0.15440   0.95420   0.07032   Biso      1.000     C          0.57836   
         C15       1.0000    0.00540   0.29760   0.37110   Biso      1.000     C          -0.13858499999999999          
         C16       1.0000    0.87910   0.74060   0.65362   Biso      1.000     C          0.133999  
         C17       1.0000    0.38710   0.12120   0.99708   Biso      1.000     C          0.118725  
         C18       1.0000    0.37190   0.93870   0.66282   Biso      1.000     C          0.567218  
         C19       1.0000    0.82750   0.06240   0.09510   Biso      1.000     C          -0.12071300000000001          
         C20       1.0000    0.74770   0.42540   0.51520   Biso      1.000     C          -0.133855           
         C21       1.0000    0.76260   0.02220   0.14990   Biso      1.000     C          -0.018474           
         C22       1.0000    0.91390   0.35980   0.31620   Biso      1.000     C          -0.014118           
         C23       1.0000    0.09750   0.36490   0.13651   Biso      1.000     C          0.5892350000000001  
         C24       1.0000    0.93910   0.38270   0.23820   Biso      1.000     C          -0.12125699999999999          
         C25       1.0000    0.06090   0.61730   0.76180   Biso      1.000     C          -0.12125599999999999          
         C26       1.0000    0.12090   0.25940   0.34638   Biso      1.000     C          0.134001  
         C27       1.0000    0.20830   0.78280   0.51060   Biso      1.000     C          -0.140559           
         C28       1.0000    0.34740   0.07020   0.89760   Biso      1.000     C          -0.125124           
         C29       1.0000    0.62810   0.06130   0.33718   Biso      1.000     C          0.567221  
         C30       1.0000    0.90250   0.63510   0.86349   Biso      1.000     C          0.5892350000000001  
         C31       1.0000    0.36780   0.61140   0.56964   Biso      1.000     C          0.12978599999999998           
         C32       1.0000    0.61290   0.87880   0.00292   Biso      1.000     C          0.118725  
         C33       1.0000    0.53640   0.47740   0.39338   Biso      1.000     C          0.571835  
         C34       1.0000    0.84560   0.04580   0.92968   Biso      1.000     C          0.57836   
         C35       1.0000    0.05720   0.34350   0.21890   Biso      1.000     C          0.108438  
         C36       1.0000    0.94280   0.65650   0.78110   Biso      1.000     C          0.108438  
         C37       1.0000    0.22940   0.19280   0.40331   Biso      1.000     C          0.582076  
         C38       1.0000    0.65260   0.92980   0.10240   Biso      1.000     C          -0.125125           
         C39       1.0000    0.78130   0.00740   0.99520   Biso      1.000     C          0.121973  
         C40       1.0000    0.79170   0.21720   0.48940   Biso      1.000     C          -0.140561           
         C41       1.0000    0.21870   0.99260   0.00480   Biso      1.000     C          0.121973  
         C42       1.0000    0.32380   0.81060   0.59570   Biso      1.000     C          0.127064  
         Ce1       1.0000    0.63582   0.79084   0.77042   Biso      1.000     Ce          1.846387  
         Ce2       1.0000    0.36418   0.20916   0.22958   Biso      1.000     Ce          1.846387  
         H1        1.0000    0.60610   0.90250   0.13750   Biso      1.000     H          0.114123  
         H2        1.0000    0.87820   0.42350   0.19980   Biso      1.000     H          0.133679  
         H3        1.0000    0.09950   0.87510   0.87540   Biso      1.000     H          0.121957  
         H4        1.0000    0.59100   0.20900   0.87900   Biso      1.000     H          0.474454  
         H5        1.0000    0.77030   0.50670   0.55130   Biso      1.000     H          0.127146  
         H6        1.0000    0.66700   0.43900   0.71200   Biso      1.000     H          0.451701  
         H7        1.0000    0.01020   0.71850   0.57630   Biso      1.000     H          0.126528  
         H8        1.0000    0.79210   0.05630   0.21720   Biso      1.000     H          0.110829  
         H9        1.0000    0.41200   0.87900   0.19700   Biso      1.000     H          0.461682  
         H10       1.0000    0.90050   0.12490   0.12460   Biso      1.000     H          0.121957  
         H11       1.0000    0.20790   0.94370   0.78280   Biso      1.000     H          0.11083   
         H12       1.0000    0.84290   0.15690   0.50890   Biso      1.000     H          0.148535  
         H13       1.0000    0.09240   0.63890   0.39820   Biso      1.000     H          0.10591400000000001           
         H14       1.0000    0.16410   0.61390   0.66840   Biso      1.000     H          0.113522  
         H15       1.0000    0.15710   0.84310   0.49110   Biso      1.000     H          0.148535  
         H16       1.0000    0.58800   0.12100   0.80300   Biso      1.000     H          0.461682  
         H17       1.0000    0.72500   0.34600   0.67400   Biso      1.000     H          0.451669  
         H18       1.0000    0.90760   0.36110   0.60180   Biso      1.000     H          0.10591400000000001           
         H19       1.0000    0.83590   0.38610   0.33160   Biso      1.000     H          0.113522  
         H20       1.0000    0.40900   0.79100   0.12100   Biso      1.000     H          0.47445200000000004           
         H21       1.0000    0.27500   0.65400   0.32600   Biso      1.000     H          0.451666  
         H22       1.0000    0.22970   0.49330   0.44870   Biso      1.000     H          0.127147  
         H23       1.0000    0.12180   0.57650   0.80020   Biso      1.000     H          0.133679  
         H24       1.0000    0.39390   0.09750   0.86250   Biso      1.000     H          0.114123  
         H25       1.0000    0.98980   0.28150   0.42370   Biso      1.000     H          0.126529  
         H26       1.0000    0.33300   0.56100   0.28800   Biso      1.000     H          0.45169899999999996           
         N1        1.0000    0.14540   0.28218   0.27113   Biso      1.000     N          -0.347256           
         N2        1.0000    0.86400   0.68990   0.27180   Biso      1.000     N          0.744533  
         N3        1.0000    0.13600   0.31010   0.72820   Biso      1.000     N          0.744531  
         N4        1.0000    0.40190   0.72650   0.62452   Biso      1.000     N          -0.333509           
         N5        1.0000    0.32290   0.08300   0.05001   Biso      1.000     N          -0.35767899999999997          
         N6        1.0000    0.67710   0.91700   0.94999   Biso      1.000     N          -0.35767899999999997          
         N7        1.0000    0.85460   0.71782   0.72887   Biso      1.000     N          -0.34725700000000004          
         N8        1.0000    0.59810   0.27350   0.37548   Biso      1.000     N          -0.33350799999999997          
         O1        1.0000    0.78900   0.82974   0.52588   Biso      1.000     O          -0.617492           
         O2        1.0000    0.69640   0.37239   0.71977   Biso      1.000     O          -0.918386           
         O3        1.0000    0.84460   0.65600   0.33823   Biso      1.000     O          -0.464942           
         O4        1.0000    0.69990   0.97950   0.35663   Biso      1.000     O          -0.594459           
         O5        1.0000    0.07600   0.85786   0.03681   Biso      1.000     O          -0.629961           
         O6        1.0000    0.96790   0.66159   0.24701   Biso      1.000     O          -0.528872           
         O7        1.0000    0.15540   0.34400   0.66177   Biso      1.000     O          -0.46493500000000004          
         O8        1.0000    0.33020   0.16596   0.37363   Biso      1.000     O          -0.64141  
         O9        1.0000    0.48447   0.95261   0.73506   Biso      1.000     O          -0.633251           
         O10       1.0000    0.43100   0.73789   0.98927   Biso      1.000     O          -0.595248           
         O11       1.0000    0.20289   0.31586   0.12364   Biso      1.000     O          -0.594919           
         O12       1.0000    0.42570   0.41292   0.56598   Biso      1.000     O          -0.6047819999999999           
         O13       1.0000    0.22190   0.24773   0.77014   Biso      1.000     O          -0.47746099999999997          
         O14       1.0000    0.03210   0.33841   0.75299   Biso      1.000     O          -0.528882           
         O15       1.0000    0.18900   0.02503   0.15688   Biso      1.000     O          -0.646094           
         O16       1.0000    0.51240   0.27483   0.14335   Biso      1.000     O          -0.665196           
         O17       1.0000    0.51553   0.04739   0.26494   Biso      1.000     O          -0.633249           
         O18       1.0000    0.21100   0.17026   0.47412   Biso      1.000     O          -0.617486           
         O19       1.0000    0.66980   0.83404   0.62637   Biso      1.000     O          -0.641408           
         O20       1.0000    0.81100   0.97497   0.84312   Biso      1.000     O          -0.646094           
         O21       1.0000    0.77810   0.75227   0.22986   Biso      1.000     O          -0.47746000000000005          
         O22       1.0000    0.60700   0.19471   0.82852   Biso      1.000     O          -0.95701  
         O23       1.0000    0.30360   0.62761   0.28023   Biso      1.000     O          -0.9183819999999999           
         O24       1.0000    0.92400   0.14214   0.96319   Biso      1.000     O          -0.6299600000000001           
         O25       1.0000    0.79711   0.68414   0.87636   Biso      1.000     O          -0.59492  
         O26       1.0000    0.39300   0.80529   0.17148   Biso      1.000     O          -0.9570049999999999           
         O27       1.0000    0.48760   0.72517   0.85665   Biso      1.000     O          -0.665196           
         O28       1.0000    0.97300   0.57103   0.91156   Biso      1.000     O          -0.719916           
         O29       1.0000    0.30010   0.02050   0.64337   Biso      1.000     O          -0.594457           
         O30       1.0000    0.57590   0.56910   0.67785   Biso      1.000     O          -0.630097           
         O31       1.0000    0.56900   0.26211   0.01073   Biso      1.000     O          -0.595248           
         O32       1.0000    0.42410   0.43090   0.32215   Biso      1.000     O          -0.630096           
         O33       1.0000    0.02700   0.42897   0.08844   Biso      1.000     O          -0.719916           
         O34       1.0000    0.57430   0.58708   0.43402   Biso      1.000     O          -0.604776 