
##########################################################################
#               Crystallographic Information Format file
#               Produced by PyCifRW module
#
#  This is a CIF file.  CIF has been adopted by the International
#  Union of Crystallography as the standard for data archiving and
#  transmission.
#
#  For information on this file format, follow the CIF links at
#  http://www.iucr.org
##########################################################################

data_image0

_cell_length_a                          14.605
_cell_length_b                          14.931
_cell_length_c                          16.946
_cell_angle_alpha                       112.16
_cell_angle_beta                        103.198
_cell_angle_gamma                       100.39
_symmetry_space_group_name_H-M          'P 1'
_symmetry_int_tables_number             1
loop_
  _symmetry_equiv_pos_as_xyz
         'x, y, z' 
loop_
  _atom_site_label
  _atom_site_occupancy
  _atom_site_fract_x
  _atom_site_fract_y
  _atom_site_fract_z
  _atom_site_thermal_displace_type
  _atom_site_B_iso_or_equiv
  _atom_site_type_symbol
  _atom_site_charge
         C1        1.0000    0.83010   0.00100   0.17508   Biso      1.000     C          -0.147702           
         C2        1.0000    0.82700   0.06490   0.33070   Biso      1.000     C          -0.135086           
         C3        1.0000    0.71942   0.47215   0.62045   Biso      1.000     C          -0.150602           
         C4        1.0000    0.30490   0.49259   0.30231   Biso      1.000     C          -0.166349           
         C5        1.0000    0.89810   0.10072   0.75215   Biso      1.000     C          -0.166381           
         C6        1.0000    0.30236   0.54364   0.24668   Biso      1.000     C          0.053505  
         C7        1.0000    0.55600   0.22098   0.95419   Biso      1.000     C          0.034969  
         C8        1.0000    0.21230   0.76460   0.38176   Biso      1.000     C          -0.256821           
         C9        1.0000    0.91810   0.55680   0.20980   Biso      1.000     C          -0.077428           
         C10       1.0000    0.99020   0.16662   0.80199   Biso      1.000     C          -0.153232           
         C11       1.0000    0.08190   0.44320   0.79020   Biso      1.000     C          -0.077428           
         C12       1.0000    0.00990   0.62000   0.26110   Biso      1.000     C          -0.149923           
         C13       1.0000    0.61160   0.37324   0.13181   Biso      1.000     C          -0.156802           
         C14       1.0000    0.45260   0.26600   0.48540   Biso      1.000     C          0.104255  
         C15       1.0000    0.98320   0.95410   0.46670   Biso      1.000     C          -0.123993           
         C16       1.0000    0.11740   0.32840   0.85160   Biso      1.000     C          -0.14135  
         C17       1.0000    0.97050   0.45446   0.98614   Biso      1.000     C          -0.115137           
         C18       1.0000    0.71900   0.89680   0.21661   Biso      1.000     C          0.035973  
         C19       1.0000    0.40140   0.27577   0.90769   Biso      1.000     C          -0.243978           
         C20       1.0000    0.52960   0.71795   0.37330   Biso      1.000     C          0.089296  
         C21       1.0000    0.79310   0.98830   0.24071   Biso      1.000     C          0.07093   
         C22       1.0000    0.95470   0.28521   0.74020   Biso      1.000     C          0.029331  
         C23       1.0000    0.75100   0.38310   0.59722   Biso      1.000     C          0.242291  
         C24       1.0000    0.70796   0.52423   0.55994   Biso      1.000     C          0.570066  
         C25       1.0000    0.00980   0.83338   0.19801   Biso      1.000     C          -0.153238           
         C26       1.0000    0.75560   0.33109   0.64992   Biso      1.000     C          -0.046634           
         C27       1.0000    0.15390   0.05615   0.97764   Biso      1.000     C          0.627614  
         C28       1.0000    0.27509   0.16450   0.93572   Biso      1.000     C          0.251868  
         C29       1.0000    0.51170   0.86770   0.48280   Biso      1.000     C          0.173415  
         C30       1.0000    0.29850   0.83280   0.00210   Biso      1.000     C          -0.149938           
         C31       1.0000    0.36370   0.55260   0.77150   Biso      1.000     C          0.57255   
         C32       1.0000    0.20740   0.94660   0.60570   Biso      1.000     C          -0.098113           
         C33       1.0000    0.68750   0.88660   0.28760   Biso      1.000     C          -0.169517           
         C34       1.0000    0.01680   0.04590   0.53330   Biso      1.000     C          -0.123946           
         C35       1.0000    0.13370   0.99472   0.23703   Biso      1.000     C          0.592246  
         C36       1.0000    0.88370   0.77580   0.38580   Biso      1.000     C          -0.188297           
         C37       1.0000    0.20104   0.07304   0.91182   Biso      1.000     C          -0.166242           
         C38       1.0000    0.16990   0.99900   0.82492   Biso      1.000     C          -0.147697           
         C39       1.0000    0.86630   0.00528   0.76297   Biso      1.000     C          0.592246  
         C40       1.0000    0.52910   0.82610   0.54210   Biso      1.000     C          -0.183393           
         C41       1.0000    0.28058   0.52785   0.37955   Biso      1.000     C          -0.150594           
         C42       1.0000    0.47090   0.17390   0.45790   Biso      1.000     C          -0.183388           
         C43       1.0000    0.84610   0.94385   0.02236   Biso      1.000     C          0.627614  
         C44       1.0000    0.24900   0.61690   0.40278   Biso      1.000     C          0.24229   
         C45       1.0000    0.30640   0.64960   0.14230   Biso      1.000     C          -0.090845           
         C46       1.0000    0.14730   0.41880   0.84800   Biso      1.000     C          -0.105208           
         C47       1.0000    0.99010   0.38000   0.73890   Biso      1.000     C          -0.149923           
         C48       1.0000    0.28100   0.10320   0.78339   Biso      1.000     C          0.035972  
         C49       1.0000    0.46450   0.85539   0.13518   Biso      1.000     C          -0.158927           
         C50       1.0000    0.85970   0.21637   0.68665   Biso      1.000     C          -0.045868           
         C51       1.0000    0.72090   0.31300   0.78221   Biso      1.000     C          -0.17037  
         C52       1.0000    0.83210   0.12584   0.69336   Biso      1.000     C          0.238137  
         C53       1.0000    0.51030   0.81090   0.39590   Biso      1.000     C          -0.190256           
         C54       1.0000    0.04860   0.78862   0.99373   Biso      1.000     C          0.106345  
         C55       1.0000    0.09360   0.32670   0.11190   Biso      1.000     C          0.070319  
         C56       1.0000    0.16790   0.87416   0.30664   Biso      1.000     C          0.238137  
         C57       1.0000    0.88260   0.67160   0.14840   Biso      1.000     C          -0.14135  
         C58       1.0000    0.04530   0.71479   0.25980   Biso      1.000     C          0.029331  
         C59       1.0000    0.14190   0.12540   0.48027   Biso      1.000     C          -0.184239           
         C60       1.0000    0.09150   0.13150   0.54170   Biso      1.000     C          0.170154  
         C61       1.0000    0.47160   0.63570   0.93680   Biso      1.000     C          0.234535  
         C62       1.0000    0.27730   0.03670   0.62670   Biso      1.000     C          -0.087214           
         C63       1.0000    0.78770   0.23540   0.61824   Biso      1.000     C          -0.256821           
         C64       1.0000    0.90640   0.67330   0.88810   Biso      1.000     C          0.070319  
         C65       1.0000    0.72270   0.96330   0.37330   Biso      1.000     C          -0.087209           
         C66       1.0000    0.10190   0.89928   0.24785   Biso      1.000     C          -0.166374           
         C67       1.0000    0.92850   0.28230   0.97813   Biso      1.000     C          -0.179601           
         C68       1.0000    0.66590   0.30740   0.11003   Biso      1.000     C          -0.148494           
         C69       1.0000    0.02210   0.26040   0.79870   Biso      1.000     C          0.054863  
         C70       1.0000    0.20690   0.01170   0.75929   Biso      1.000     C          0.070928  
         C71       1.0000    0.17300   0.93510   0.66930   Biso      1.000     C          -0.135065           
         C72       1.0000    0.95140   0.21138   0.00627   Biso      1.000     C          0.106348  
         C73       1.0000    0.90850   0.86850   0.45830   Biso      1.000     C          0.170161  
         C74       1.0000    0.69764   0.45636   0.75332   Biso      1.000     C          0.053504  
         C75       1.0000    0.70150   0.16720   0.99790   Biso      1.000     C          -0.149938           
         C76       1.0000    0.69510   0.50741   0.69769   Biso      1.000     C          -0.166342           
         C77       1.0000    0.31860   0.17937   0.87509   Biso      1.000     C          -0.043392           
         C78       1.0000    0.32020   0.90360   0.08860   Biso      1.000     C          -0.112003           
         C79       1.0000    0.54740   0.73400   0.51460   Biso      1.000     C          0.104261  
         C80       1.0000    0.85270   0.58120   0.15200   Biso      1.000     C          -0.105208           
         C81       1.0000    0.47040   0.28205   0.62670   Biso      1.000     C          0.089296  
         C82       1.0000    0.31250   0.11340   0.71240   Biso      1.000     C          -0.16951  
         C83       1.0000    0.67060   0.49290   0.83184   Biso      1.000     C          -0.14066  
         C84       1.0000    0.02950   0.54554   0.01386   Biso      1.000     C          -0.115102           
         C85       1.0000    0.63630   0.44740   0.22850   Biso      1.000     C          0.57255   
         C86       1.0000    0.14030   0.78363   0.31335   Biso      1.000     C          -0.045868           
         C87       1.0000    0.21210   0.20983   0.49426   Biso      1.000     C          0.074765  
         C88       1.0000    0.49960   0.97090   0.51580   Biso      1.000     C          -0.114715           
         C89       1.0000    0.72589   0.36573   0.72771   Biso      1.000     C          0.027538  
         C90       1.0000    0.66910   0.44160   0.88360   Biso      1.000     C          -0.101753           
         C91       1.0000    0.35800   0.76805   0.97893   Biso      1.000     C          0.061797  
         C92       1.0000    0.38840   0.62676   0.86819   Biso      1.000     C          -0.156803           
         C93       1.0000    0.68140   0.82063   0.12491   Biso      1.000     C          -0.043393           
         C94       1.0000    0.79260   0.05340   0.39430   Biso      1.000     C          -0.098092           
         C95       1.0000    0.00860   0.62027   0.98202   Biso      1.000     C          0.175099  
         C96       1.0000    0.24440   0.66891   0.35008   Biso      1.000     C          -0.046634           
         C97       1.0000    0.64200   0.23195   0.02107   Biso      1.000     C          0.061797  
         C98       1.0000    0.48830   0.13230   0.51720   Biso      1.000     C          0.173404  
         C99       1.0000    0.81380   0.69410   0.37740   Biso      1.000     C          0.096362  
         C100      1.0000    0.49660   0.28668   0.97605   Biso      1.000     C          -0.038098           
         C101      1.0000    0.29204   0.47577   0.44006   Biso      1.000     C          0.570065  
         C102      1.0000    0.85810   0.87460   0.51973   Biso      1.000     C          -0.18424  
         C103      1.0000    0.53550   0.14461   0.86482   Biso      1.000     C          -0.158927           
         C104      1.0000    0.72491   0.83550   0.06428   Biso      1.000     C          0.251868  
         C105      1.0000    0.27411   0.63427   0.27229   Biso      1.000     C          0.027537  
         C106      1.0000    0.67980   0.09640   0.91140   Biso      1.000     C          -0.112003           
         C107      1.0000    0.52840   0.36430   0.06320   Biso      1.000     C          0.234535  
         C108      1.0000    0.79896   0.92696   0.08818   Biso      1.000     C          -0.166237           
         C109      1.0000    0.99140   0.37973   0.01798   Biso      1.000     C          0.175104  
         C110      1.0000    0.69360   0.35040   0.85770   Biso      1.000     C          -0.090841           
         C111      1.0000    0.32940   0.50710   0.16816   Biso      1.000     C          -0.14066  
         C112      1.0000    0.11630   0.22420   0.61420   Biso      1.000     C          -0.188294           
         C113      1.0000    0.50040   0.02910   0.48420   Biso      1.000     C          -0.114592           
         C114      1.0000    0.07150   0.71770   0.02187   Biso      1.000     C          -0.179597           
         C115      1.0000    0.27910   0.68700   0.21779   Biso      1.000     C          -0.170366           
         C116      1.0000    0.50340   0.71332   0.02395   Biso      1.000     C          -0.038098           
         C117      1.0000    0.33410   0.69260   0.88997   Biso      1.000     C          -0.148493           
         C118      1.0000    0.92460   0.59860   0.91270   Biso      1.000     C          -0.171684           
         C119      1.0000    0.33090   0.55840   0.11640   Biso      1.000     C          -0.101752           
         C120      1.0000    0.18620   0.30590   0.62260   Biso      1.000     C          0.096362  
         C121      1.0000    0.07540   0.40140   0.08730   Biso      1.000     C          -0.171685           
         C122      1.0000    0.97790   0.73960   0.20130   Biso      1.000     C          0.054863  
         C123      1.0000    0.59640   0.08580   0.84490   Biso      1.000     C          -0.08118  
         C124      1.0000    0.40360   0.91420   0.15510   Biso      1.000     C          -0.08118  
         C125      1.0000    0.78790   0.79017   0.50574   Biso      1.000     C          0.074765  
         C126      1.0000    0.44400   0.77902   0.04581   Biso      1.000     C          0.03497   
         C127      1.0000    0.59860   0.72423   0.09231   Biso      1.000     C          -0.243978           
         C128      1.0000    0.48970   0.18910   0.60410   Biso      1.000     C          -0.190255           
         Cd1       1.0000    0.36024   0.44122   0.59463   Biso      1.000     Cd          0.863003  
         Cd2       1.0000    0.63976   0.55878   0.40537   Biso      1.000     Cd          0.863003  
         Cd3       1.0000    0.07268   0.12623   0.13401   Biso      1.000     Cd          0.984244  
         Cd4       1.0000    0.92732   0.87377   0.86599   Biso      1.000     Cd          0.984244  
         H1        1.0000    0.03350   0.14940   0.83940   Biso      1.000     H          0.124063  
         H2        1.0000    0.52840   0.86000   0.60060   Biso      1.000     H          0.13868   
         H3        1.0000    0.69980   0.95540   0.41790   Biso      1.000     H          0.097673  
         H4        1.0000    0.12290   0.93870   0.80910   Biso      1.000     H          0.111913  
         H5        1.0000    0.20990   0.46320   0.88310   Biso      1.000     H          0.110773  
         H6        1.0000    0.99020   0.05740   0.57990   Biso      1.000     H          0.112538  
         H7        1.0000    0.80020   0.63200   0.32860   Biso      1.000     H          0.088516  
         H8        1.0000    0.81530   0.10540   0.45250   Biso      1.000     H          0.10632   
         H9        1.0000    0.84880   0.65750   0.84200   Biso      1.000     H          0.088504  
         H10       1.0000    0.18310   0.76460   0.42780   Biso      1.000     H          0.134172  
         H11       1.0000    0.23180   0.61760   0.50520   Biso      1.000     H          0.401847  
         H12       1.0000    0.49630   0.83490   0.35260   Biso      1.000     H          0.130657  
         H13       1.0000    0.71980   0.31250   0.15480   Biso      1.000     H          0.126062  
         H14       1.0000    0.72030   0.05560   0.89690   Biso      1.000     H          0.110094  
         H15       1.0000    0.27120   0.82210   0.41080   Biso      1.000     H          0.136011  
         H16       1.0000    0.30880   0.68520   0.10780   Biso      1.000     H          0.102444  
         H17       1.0000    0.89800   0.49580   0.21280   Biso      1.000     H          0.110408  
         H18       1.0000    0.50370   0.16510   0.64740   Biso      1.000     H          0.130658  
         H19       1.0000    0.65360   0.55280   0.84860   Biso      1.000     H          0.116702  
         H20       1.0000    0.47970   0.13480   0.81940   Biso      1.000     H          0.100006  
         H21       1.0000    0.49070   0.52610   0.85080   Biso      1.000     H          0.333885  
         H22       1.0000    0.50930   0.47390   0.14920   Biso      1.000     H          0.333884  
         H23       1.0000    0.11960   0.46620   0.11740   Biso      1.000     H          0.127151  
         H24       1.0000    0.87440   0.12480   0.34590   Biso      1.000     H          0.115358  
         H25       1.0000    0.15120   0.34250   0.15800   Biso      1.000     H          0.088504  
         H26       1.0000    0.73330   0.01130   0.65340   Biso      1.000     H          0.390647  
         H27       1.0000    0.69120   0.31480   0.89220   Biso      1.000     H          0.102444  
         H28       1.0000    0.12820   0.06450   0.43000   Biso      1.000     H          0.12287   
         H29       1.0000    0.91010   0.43590   0.94230   Biso      1.000     H          0.109809  
         H30       1.0000    0.52030   0.86520   0.18060   Biso      1.000     H          0.100006  
         H31       1.0000    0.91420   0.76800   0.34220   Biso      1.000     H          0.120056  
         H32       1.0000    0.27600   0.22360   0.05050   Biso      1.000     H          0.392202  
         H33       1.0000    0.90830   0.14600   0.97760   Biso      1.000     H          0.100496  
         H34       1.0000    0.51060   0.00630   0.42860   Biso      1.000     H          0.105728  
         H35       1.0000    0.87020   0.26450   0.93190   Biso      1.000     H          0.132022  
         H36       1.0000    0.58340   0.72100   0.14420   Biso      1.000     H          0.121044  
         H37       1.0000    0.72400   0.77640   0.94950   Biso      1.000     H          0.392202  
         H38       1.0000    0.41810   0.96230   0.21400   Biso      1.000     H          0.101628  
         H39       1.0000    0.47160   0.14000   0.39940   Biso      1.000     H          0.138678  
         H40       1.0000    0.35770   0.17340   0.72460   Biso      1.000     H          0.103382  
         H41       1.0000    0.26670   0.98870   0.34660   Biso      1.000     H          0.390647  
         H42       1.0000    0.24540   0.20370   0.45270   Biso      1.000     H          0.092793  
         H43       1.0000    0.44120   0.29260   0.44370   Biso      1.000     H          0.101771  
         H44       1.0000    0.27970   0.94440   0.10310   Biso      1.000     H          0.110094  
         H45       1.0000    0.37810   0.33320   0.93460   Biso      1.000     H          0.141493  
         H46       1.0000    0.47180   0.31900   0.68530   Biso      1.000     H          0.099571  
         H47       1.0000    0.75460   0.79630   0.54730   Biso      1.000     H          0.092793  
         H48       1.0000    0.12560   0.87520   0.65410   Biso      1.000     H          0.115357  
         H49       1.0000    0.62190   0.66680   0.06540   Biso      1.000     H          0.141493  
         H50       1.0000    0.58190   0.03770   0.78600   Biso      1.000     H          0.101627  
         H51       1.0000    0.73640   0.25230   0.76630   Biso      1.000     H          0.109195  
         H52       1.0000    0.96650   0.85060   0.16060   Biso      1.000     H          0.124063  
         H53       1.0000    0.72880   0.17790   0.58920   Biso      1.000     H          0.136011  
         H54       1.0000    0.52820   0.68100   0.31470   Biso      1.000     H          0.099571  
         H55       1.0000    0.32360   0.43360   0.28600   Biso      1.000     H          0.126516  
         H56       1.0000    0.18470   0.89460   0.54750   Biso      1.000     H          0.106322  
         H57       1.0000    0.19980   0.36800   0.67140   Biso      1.000     H          0.088516  
         H58       1.0000    0.26360   0.74770   0.23370   Biso      1.000     H          0.109195  
         H59       1.0000    0.00980   0.94260   0.42010   Biso      1.000     H          0.112542  
         H60       1.0000    0.83970   0.68860   0.11050   Biso      1.000     H          0.119297  
         H61       1.0000    0.75630   0.17310   0.04240   Biso      1.000     H          0.110603  
         H62       1.0000    0.08580   0.23200   0.65780   Biso      1.000     H          0.120055  
         H63       1.0000    0.65190   0.46680   0.93560   Biso      1.000     H          0.116511  
         H64       1.0000    0.79010   0.53680   0.11690   Biso      1.000     H          0.110773  
         H65       1.0000    0.87180   0.93550   0.57000   Biso      1.000     H          0.12287   
         H66       1.0000    0.48940   0.99370   0.57140   Biso      1.000     H          0.105735  
         H67       1.0000    0.09170   0.85400   0.02240   Biso      1.000     H          0.100496  
         H68       1.0000    0.76820   0.38240   0.49480   Biso      1.000     H          0.401848  
         H69       1.0000    0.67640   0.56640   0.71400   Biso      1.000     H          0.126516  
         H70       1.0000    0.88040   0.53380   0.88260   Biso      1.000     H          0.127151  
         H71       1.0000    0.64230   0.82660   0.27540   Biso      1.000     H          0.103383  
         H72       1.0000    0.16030   0.31140   0.88950   Biso      1.000     H          0.119297  
         H73       1.0000    0.05100   0.60100   0.29850   Biso      1.000     H          0.113482  
         H74       1.0000    0.10200   0.50420   0.78720   Biso      1.000     H          0.110408  
         H75       1.0000    0.87710   0.06130   0.19090   Biso      1.000     H          0.111913  
         H76       1.0000    0.41660   0.27900   0.85580   Biso      1.000     H          0.121044  
         H77       1.0000    0.81690   0.23540   0.57220   Biso      1.000     H          0.134172  
         H78       1.0000    0.30020   0.04460   0.58210   Biso      1.000     H          0.097673  
         H79       1.0000    0.55880   0.70740   0.55630   Biso      1.000     H          0.101771  
         H80       1.0000    0.94900   0.39900   0.70150   Biso      1.000     H          0.113482  
         H81       1.0000    0.24370   0.82690   0.95760   Biso      1.000     H          0.110603  
         H82       1.0000    0.34810   0.53320   0.06440   Biso      1.000     H          0.116511  
         H83       1.0000    0.34640   0.44720   0.15140   Biso      1.000     H          0.116702  
         H84       1.0000    0.28020   0.68750   0.84520   Biso      1.000     H          0.126062  
         H85       1.0000    0.08990   0.56410   0.05770   Biso      1.000     H          0.109806  
         H86       1.0000    0.12980   0.73550   0.06810   Biso      1.000     H          0.132022  
         N1        1.0000    0.96721   0.76710   0.92714   Biso      1.000     N          -0.236783           
         N2        1.0000    0.76490   0.69954   0.43549   Biso      1.000     N          -0.232965           
         N3        1.0000    0.44984   0.31997   0.56719   Biso      1.000     N          -0.243634           
         N4        1.0000    0.03279   0.23290   0.07286   Biso      1.000     N          -0.236783           
         N5        1.0000    0.23510   0.30046   0.56451   Biso      1.000     N          -0.232965           
         N6        1.0000    0.55016   0.68003   0.43281   Biso      1.000     N          -0.243635           
         O1        1.0000    0.21838   0.05563   0.28551   Biso      1.000     O          -0.587464           
         O2        1.0000    0.07303   0.00651   0.17916   Biso      1.000     O          -0.555679           
         O3        1.0000    0.52166   0.56631   0.91851   Biso      1.000     O          -0.439569           
         O4        1.0000    0.27027   0.51062   0.51181   Biso      1.000     O          -0.553995           
         O5        1.0000    0.69476   0.75935   0.97992   Biso      1.000     O          -0.483863           
         O6        1.0000    0.30524   0.24065   0.02008   Biso      1.000     O          -0.483863           
         O7        1.0000    0.70420   0.44936   0.28898   Biso      1.000     O          -0.530098           
         O8        1.0000    0.77678   0.34725   0.52154   Biso      1.000     O          -0.495883           
         O9        1.0000    0.18515   0.12673   0.05724   Biso      1.000     O          -0.586485           
         O10       1.0000    0.67423   0.59889   0.57952   Biso      1.000     O          -0.587601           
         O11       1.0000    0.78162   0.94437   0.71449   Biso      1.000     O          -0.587465           
         O12       1.0000    0.58240   0.50577   0.24774   Biso      1.000     O          -0.573156           
         O13       1.0000    0.74057   0.06069   0.64251   Biso      1.000     O          -0.503058           
         O14       1.0000    0.47834   0.43369   0.08149   Biso      1.000     O          -0.439569           
         O15       1.0000    0.72973   0.48938   0.48819   Biso      1.000     O          -0.553995           
         O16       1.0000    0.25943   0.93931   0.35749   Biso      1.000     O          -0.503059           
         O17       1.0000    0.29580   0.55064   0.71102   Biso      1.000     O          -0.530098           
         O18       1.0000    0.41760   0.49423   0.75226   Biso      1.000     O          -0.573156           
         O19       1.0000    0.08885   0.97579   0.95361   Biso      1.000     O          -0.598865           
         O20       1.0000    0.81485   0.87327   0.94276   Biso      1.000     O          -0.586485           
         O21       1.0000    0.32577   0.40111   0.42048   Biso      1.000     O          -0.587601           
         O22       1.0000    0.91115   0.02421   0.04639   Biso      1.000     O          -0.598865           
         O23       1.0000    0.22322   0.65275   0.47846   Biso      1.000     O          -0.495883           
         O24       1.0000    0.92697   0.99349   0.82084   Biso      1.000     O          -0.555679 