
##########################################################################
#               Crystallographic Information Format file
#               Produced by PyCifRW module
#
#  This is a CIF file.  CIF has been adopted by the International
#  Union of Crystallography as the standard for data archiving and
#  transmission.
#
#  For information on this file format, follow the CIF links at
#  http://www.iucr.org
##########################################################################

data_image0

_cell_length_a                          13.5104
_cell_length_b                          14.1107
_cell_length_c                          8.8
_cell_angle_alpha                       90
_cell_angle_beta                        114.617
_cell_angle_gamma                       90
_symmetry_space_group_name_H-M          'P 1'
_symmetry_int_tables_number             1
loop_
  _symmetry_equiv_pos_as_xyz
         'x, y, z' 
loop_
  _atom_site_label
  _atom_site_occupancy
  _atom_site_fract_x
  _atom_site_fract_y
  _atom_site_fract_z
  _atom_site_thermal_displace_type
  _atom_site_B_iso_or_equiv
  _atom_site_type_symbol
  _atom_site_charge
         C1        1.0000    0.28154   0.76492   0.87015   Biso      1.000     C          -0.226499           
         C2        1.0000    0.28154   0.23508   0.37015   Biso      1.000     C          -0.226499           
         C3        1.0000    0.31204   0.16990   0.50134   Biso      1.000     C          -0.160334           
         C4        1.0000    0.37753   0.08460   0.49855   Biso      1.000     C          0.695901  
         C5        1.0000    0.28015   0.81431   0.13280   Biso      1.000     C          0.314049  
         C6        1.0000    0.87753   0.41540   0.99855   Biso      1.000     C          0.695901  
         C7        1.0000    0.78015   0.68569   0.63280   Biso      1.000     C          0.314048  
         C8        1.0000    0.31204   0.83010   0.00134   Biso      1.000     C          -0.160334           
         C9        1.0000    0.78154   0.73508   0.37015   Biso      1.000     C          -0.226499           
         C10       1.0000    0.81204   0.66990   0.50134   Biso      1.000     C          -0.160334           
         C11       1.0000    0.87753   0.58460   0.49855   Biso      1.000     C          0.695901  
         C12       1.0000    0.81204   0.33010   0.00134   Biso      1.000     C          -0.160335           
         C13       1.0000    0.78154   0.26492   0.87015   Biso      1.000     C          -0.226499           
         C14       1.0000    0.62247   0.91540   0.50145   Biso      1.000     C          0.695901  
         C15       1.0000    0.68796   0.83010   0.49866   Biso      1.000     C          -0.160335           
         C16       1.0000    0.21985   0.31431   0.36720   Biso      1.000     C          0.314049  
         C17       1.0000    0.71985   0.18569   0.86720   Biso      1.000     C          0.314048  
         C18       1.0000    0.71846   0.23508   0.12985   Biso      1.000     C          -0.226499           
         C19       1.0000    0.37753   0.91540   0.99855   Biso      1.000     C          0.695901  
         C20       1.0000    0.12247   0.41540   0.50145   Biso      1.000     C          0.695901  
         C21       1.0000    0.12247   0.58460   0.00145   Biso      1.000     C          0.695901  
         C22       1.0000    0.18796   0.66990   0.99866   Biso      1.000     C          -0.160335           
         C23       1.0000    0.18796   0.33010   0.49866   Biso      1.000     C          -0.160334           
         C24       1.0000    0.21985   0.68569   0.86720   Biso      1.000     C          0.314049  
         C25       1.0000    0.21846   0.73508   0.12985   Biso      1.000     C          -0.226499           
         C26       1.0000    0.21846   0.26492   0.62985   Biso      1.000     C          -0.226499           
         C27       1.0000    0.71846   0.76492   0.62985   Biso      1.000     C          -0.226499           
         C28       1.0000    0.78015   0.31431   0.13280   Biso      1.000     C          0.314049  
         C29       1.0000    0.62247   0.08460   0.00145   Biso      1.000     C          0.695901  
         C30       1.0000    0.68796   0.16990   0.99866   Biso      1.000     C          -0.160334           
         C31       1.0000    0.71985   0.81431   0.36720   Biso      1.000     C          0.314049  
         C32       1.0000    0.28015   0.18569   0.63280   Biso      1.000     C          0.314049  
         H1        1.0000    0.80290   0.27470   0.78360   Biso      1.000     H          0.133768  
         H2        1.0000    0.84900   0.41550   0.26020   Biso      1.000     H          0.399204  
         H3        1.0000    0.19710   0.27470   0.71640   Biso      1.000     H          0.133768  
         H4        1.0000    0.34900   0.91550   0.26020   Biso      1.000     H          0.399204  
         H5        1.0000    0.80290   0.72530   0.28360   Biso      1.000     H          0.133769  
         H6        1.0000    0.34900   0.08450   0.76020   Biso      1.000     H          0.399205  
         H7        1.0000    0.30290   0.77470   0.78360   Biso      1.000     H          0.133768  
         H8        1.0000    0.15100   0.41550   0.23980   Biso      1.000     H          0.399205  
         H9        1.0000    0.84900   0.58450   0.76020   Biso      1.000     H          0.399204  
         H10       1.0000    0.65100   0.91550   0.23980   Biso      1.000     H          0.399205  
         H11       1.0000    0.69710   0.22530   0.21640   Biso      1.000     H          0.133768  
         H12       1.0000    0.65100   0.08450   0.73980   Biso      1.000     H          0.399204  
         H13       1.0000    0.69710   0.77470   0.71640   Biso      1.000     H          0.133768  
         H14       1.0000    0.19710   0.72530   0.21640   Biso      1.000     H          0.133768  
         H15       1.0000    0.15100   0.58450   0.73980   Biso      1.000     H          0.399205  
         H16       1.0000    0.30290   0.22530   0.28360   Biso      1.000     H          0.133769  
         Mg1       1.0000    0.00000   0.42133   0.75000   Biso      1.000     Mg          1.493434  
         Mg2       1.0000    0.00000   0.57867   0.25000   Biso      1.000     Mg          1.493434  
         Mg3       1.0000    0.50000   0.07867   0.25000   Biso      1.000     Mg          1.493434  
         Mg4       1.0000    0.50000   0.92133   0.75000   Biso      1.000     Mg          1.493434  
         O1        1.0000    0.69328   0.87519   0.23495   Biso      1.000     O          -0.5209   
         O2        1.0000    0.60515   0.97553   0.38540   Biso      1.000     O          -0.687945           
         O3        1.0000    0.59186   0.92403   0.61542   Biso      1.000     O          -0.693962           
         O4        1.0000    0.19328   0.37519   0.23495   Biso      1.000     O          -0.5209   
         O5        1.0000    0.09186   0.57597   0.11542   Biso      1.000     O          -0.693962           
         O6        1.0000    0.09186   0.42403   0.61542   Biso      1.000     O          -0.693962           
         O7        1.0000    0.10515   0.52447   0.88540   Biso      1.000     O          -0.687945           
         O8        1.0000    0.19328   0.62481   0.73495   Biso      1.000     O          -0.5209   
         O9        1.0000    0.59186   0.07597   0.11542   Biso      1.000     O          -0.693962           
         O10       1.0000    0.60515   0.02447   0.88540   Biso      1.000     O          -0.687945           
         O11       1.0000    0.69328   0.12481   0.73495   Biso      1.000     O          -0.520899           
         O12       1.0000    0.90814   0.57597   0.38458   Biso      1.000     O          -0.693962           
         O13       1.0000    0.89485   0.52447   0.61460   Biso      1.000     O          -0.687945           
         O14       1.0000    0.10515   0.47553   0.38540   Biso      1.000     O          -0.687945           
         O15       1.0000    0.80672   0.62481   0.76505   Biso      1.000     O          -0.5209   
         O16       1.0000    0.39485   0.02447   0.61460   Biso      1.000     O          -0.687945           
         O17       1.0000    0.30672   0.12481   0.76505   Biso      1.000     O          -0.5209   
         O18       1.0000    0.90814   0.42403   0.88458   Biso      1.000     O          -0.693962           
         O19       1.0000    0.80672   0.37519   0.26505   Biso      1.000     O          -0.520899           
         O20       1.0000    0.40814   0.92403   0.88458   Biso      1.000     O          -0.693962           
         O21       1.0000    0.39485   0.97553   0.11460   Biso      1.000     O          -0.687945           
         O22       1.0000    0.30672   0.87519   0.26505   Biso      1.000     O          -0.5209   
         O23       1.0000    0.40814   0.07597   0.38458   Biso      1.000     O          -0.693962           
         O24       1.0000    0.89485   0.47553   0.11460   Biso      1.000     O          -0.687945 