
##########################################################################
#               Crystallographic Information Format file
#               Produced by PyCifRW module
#
#  This is a CIF file.  CIF has been adopted by the International
#  Union of Crystallography as the standard for data archiving and
#  transmission.
#
#  For information on this file format, follow the CIF links at
#  http://www.iucr.org
##########################################################################

data_image0

_cell_length_a                          13.741
_cell_length_b                          13.972
_cell_length_c                          8.8045
_cell_angle_alpha                       90
_cell_angle_beta                        113.76
_cell_angle_gamma                       90
_symmetry_space_group_name_H-M          'P 1'
_symmetry_int_tables_number             1
loop_
  _symmetry_equiv_pos_as_xyz
         'x, y, z' 
loop_
  _atom_site_label
  _atom_site_occupancy
  _atom_site_fract_x
  _atom_site_fract_y
  _atom_site_fract_z
  _atom_site_thermal_displace_type
  _atom_site_B_iso_or_equiv
  _atom_site_type_symbol
  _atom_site_charge
         C1        1.0000    0.27987   0.76544   0.86960   Biso      1.000     C          -0.22572199999999998          
         C2        1.0000    0.27987   0.23456   0.36960   Biso      1.000     C          -0.22572199999999998          
         C3        1.0000    0.31305   0.17077   0.50150   Biso      1.000     C          -0.161332           
         C4        1.0000    0.37911   0.08576   0.49900   Biso      1.000     C          0.703588  
         C5        1.0000    0.28234   0.81296   0.13360   Biso      1.000     C          0.315979  
         C6        1.0000    0.87911   0.41424   0.99900   Biso      1.000     C          0.703588  
         C7        1.0000    0.78234   0.68704   0.63360   Biso      1.000     C          0.315979  
         C8        1.0000    0.31305   0.82923   0.00150   Biso      1.000     C          -0.161331           
         C9        1.0000    0.77987   0.73456   0.36960   Biso      1.000     C          -0.22572199999999998          
         C10       1.0000    0.81305   0.67077   0.50150   Biso      1.000     C          -0.161331           
         C11       1.0000    0.87911   0.58576   0.49900   Biso      1.000     C          0.703588  
         C12       1.0000    0.81305   0.32923   0.00150   Biso      1.000     C          -0.161332           
         C13       1.0000    0.77987   0.26544   0.86960   Biso      1.000     C          -0.22572199999999998          
         C14       1.0000    0.62089   0.91424   0.50100   Biso      1.000     C          0.703588  
         C15       1.0000    0.68695   0.82923   0.49850   Biso      1.000     C          -0.161332           
         C16       1.0000    0.21766   0.31296   0.36640   Biso      1.000     C          0.315981  
         C17       1.0000    0.71766   0.18704   0.86640   Biso      1.000     C          0.315981  
         C18       1.0000    0.72013   0.23456   0.13040   Biso      1.000     C          -0.22572199999999998          
         C19       1.0000    0.37911   0.91424   0.99900   Biso      1.000     C          0.703588  
         C20       1.0000    0.12089   0.41424   0.50100   Biso      1.000     C          0.703588  
         C21       1.0000    0.12089   0.58576   0.00100   Biso      1.000     C          0.703588  
         C22       1.0000    0.18695   0.67077   0.99850   Biso      1.000     C          -0.161332           
         C23       1.0000    0.18695   0.32923   0.49850   Biso      1.000     C          -0.161332           
         C24       1.0000    0.21766   0.68704   0.86640   Biso      1.000     C          0.315981  
         C25       1.0000    0.22013   0.73456   0.13040   Biso      1.000     C          -0.22571999999999998          
         C26       1.0000    0.22013   0.26544   0.63040   Biso      1.000     C          -0.22572199999999998          
         C27       1.0000    0.72013   0.76544   0.63040   Biso      1.000     C          -0.22571999999999998          
         C28       1.0000    0.78234   0.31296   0.13360   Biso      1.000     C          0.315981  
         C29       1.0000    0.62089   0.08576   0.00100   Biso      1.000     C          0.703588  
         C30       1.0000    0.68695   0.17077   0.99850   Biso      1.000     C          -0.161332           
         C31       1.0000    0.71766   0.81296   0.36640   Biso      1.000     C          0.315981  
         C32       1.0000    0.28234   0.18704   0.63360   Biso      1.000     C          0.315981  
         H1        1.0000    0.79980   0.27560   0.78180   Biso      1.000     H          0.13397   
         H2        1.0000    0.85280   0.41310   0.26210   Biso      1.000     H          0.401814  
         H3        1.0000    0.20020   0.27560   0.71820   Biso      1.000     H          0.13397   
         H4        1.0000    0.35280   0.91310   0.26210   Biso      1.000     H          0.401814  
         H5        1.0000    0.79980   0.72440   0.28180   Biso      1.000     H          0.13397   
         H6        1.0000    0.35280   0.08690   0.76210   Biso      1.000     H          0.401814  
         H7        1.0000    0.29980   0.77560   0.78180   Biso      1.000     H          0.13397   
         H8        1.0000    0.14720   0.41310   0.23790   Biso      1.000     H          0.401814  
         H9        1.0000    0.85280   0.58690   0.76210   Biso      1.000     H          0.401814  
         H10       1.0000    0.64720   0.91310   0.23790   Biso      1.000     H          0.401814  
         H11       1.0000    0.70020   0.22440   0.21820   Biso      1.000     H          0.13397   
         H12       1.0000    0.64720   0.08690   0.73790   Biso      1.000     H          0.401814  
         H13       1.0000    0.70020   0.77560   0.71820   Biso      1.000     H          0.13397   
         H14       1.0000    0.20020   0.72440   0.21820   Biso      1.000     H          0.13397   
         H15       1.0000    0.14720   0.58690   0.73790   Biso      1.000     H          0.401814  
         H16       1.0000    0.29980   0.22440   0.28180   Biso      1.000     H          0.13397   
         Mg1       1.0000    0.00000   0.42220   0.75000   Biso      1.000     Mg          1.494881  
         Mg2       1.0000    0.00000   0.57780   0.25000   Biso      1.000     Mg          1.494881  
         Mg3       1.0000    0.50000   0.07780   0.25000   Biso      1.000     Mg          1.494881  
         Mg4       1.0000    0.50000   0.92220   0.75000   Biso      1.000     Mg          1.494881  
         O1        1.0000    0.68938   0.87299   0.23276   Biso      1.000     O          -0.5286770000000001           
         O2        1.0000    0.60206   0.97386   0.38489   Biso      1.000     O          -0.692018           
         O3        1.0000    0.59191   0.92301   0.61564   Biso      1.000     O          -0.695044           
         O4        1.0000    0.18938   0.37299   0.23276   Biso      1.000     O          -0.5286770000000001           
         O5        1.0000    0.09191   0.57699   0.11564   Biso      1.000     O          -0.695044           
         O6        1.0000    0.09191   0.42301   0.61564   Biso      1.000     O          -0.695044           
         O7        1.0000    0.10206   0.52614   0.88489   Biso      1.000     O          -0.692018           
         O8        1.0000    0.18938   0.62701   0.73276   Biso      1.000     O          -0.5286770000000001           
         O9        1.0000    0.59191   0.07699   0.11564   Biso      1.000     O          -0.695044           
         O10       1.0000    0.60206   0.02614   0.88489   Biso      1.000     O          -0.692018           
         O11       1.0000    0.68938   0.12701   0.73276   Biso      1.000     O          -0.5286770000000001           
         O12       1.0000    0.90809   0.57699   0.38436   Biso      1.000     O          -0.695044           
         O13       1.0000    0.89794   0.52614   0.61511   Biso      1.000     O          -0.692018           
         O14       1.0000    0.10206   0.47386   0.38489   Biso      1.000     O          -0.692018           
         O15       1.0000    0.81062   0.62701   0.76724   Biso      1.000     O          -0.5286770000000001           
         O16       1.0000    0.39794   0.02614   0.61511   Biso      1.000     O          -0.692018           
         O17       1.0000    0.31062   0.12701   0.76724   Biso      1.000     O          -0.5286770000000001           
         O18       1.0000    0.90809   0.42301   0.88436   Biso      1.000     O          -0.695044           
         O19       1.0000    0.81062   0.37299   0.26724   Biso      1.000     O          -0.5286770000000001           
         O20       1.0000    0.40809   0.92301   0.88436   Biso      1.000     O          -0.695044           
         O21       1.0000    0.39794   0.97386   0.11511   Biso      1.000     O          -0.692018           
         O22       1.0000    0.31062   0.87299   0.26724   Biso      1.000     O          -0.5286770000000001           
         O23       1.0000    0.40809   0.07699   0.38436   Biso      1.000     O          -0.695044           
         O24       1.0000    0.89794   0.47386   0.11511   Biso      1.000     O          -0.692018 