
##########################################################################
#               Crystallographic Information Format file
#               Produced by PyCifRW module
#
#  This is a CIF file.  CIF has been adopted by the International
#  Union of Crystallography as the standard for data archiving and
#  transmission.
#
#  For information on this file format, follow the CIF links at
#  http://www.iucr.org
##########################################################################

data_image0

_cell_length_a                          10.1912
_cell_length_b                          13.7008
_cell_length_c                          24.471
_cell_angle_alpha                       81.0302
_cell_angle_beta                        77.9813
_cell_angle_gamma                       68.166
_symmetry_space_group_name_H-M          'P 1'
_symmetry_int_tables_number             1
loop_
  _symmetry_equiv_pos_as_xyz
         'x, y, z' 
loop_
  _atom_site_label
  _atom_site_occupancy
  _atom_site_fract_x
  _atom_site_fract_y
  _atom_site_fract_z
  _atom_site_thermal_displace_type
  _atom_site_B_iso_or_equiv
  _atom_site_type_symbol
  _atom_site_charge
         Ag1       1.0000    0.56896   0.05147   0.34645   Biso      1.000     Ag          0.251236  
         Ag2       1.0000    0.36805   0.06600   0.62172   Biso      1.000     Ag          0.205739  
         Ag3       1.0000    0.75931   0.57083   0.01247   Biso      1.000     Ag          0.185511  
         Ag4       1.0000    0.65739   0.07083   0.51247   Biso      1.000     Ag          0.185913  
         Ag5       1.0000    0.23418   0.77261   0.31437   Biso      1.000     Ag          0.26183   
         Ag6       1.0000    0.67884   0.27261   0.81437   Biso      1.000     Ag          0.261713  
         Ag7       1.0000    0.90352   0.46758   0.33716   Biso      1.000     Ag          0.274396  
         Ag8       1.0000    0.03312   0.55147   0.84645   Biso      1.000     Ag          0.251298  
         Ag9       1.0000    0.03567   0.26855   0.82717   Biso      1.000     Ag          0.229904  
         Ag10      1.0000    0.39697   0.50955   0.89029   Biso      1.000     Ag          0.282553  
         Ag11      1.0000    0.20319   0.00955   0.39029   Biso      1.000     Ag          0.282148  
         Ag12      1.0000    0.29174   0.96758   0.83716   Biso      1.000     Ag          0.274258  
         Ag13      1.0000    0.94423   0.56600   0.12172   Biso      1.000     Ag          0.20586   
         Ag14      1.0000    0.86861   0.76855   0.32717   Biso      1.000     Ag          0.229069  
         C1        1.0000    0.74840   0.48510   0.21450   Biso      1.000     C          -0.013229           
         C2        1.0000    0.63500   0.65750   0.27730   Biso      1.000     C          -0.033123           
         C3        1.0000    0.04270   0.78830   0.80910   Biso      1.000     C          0.019231  
         C4        1.0000    0.72600   0.71050   0.90090   Biso      1.000     C          -0.197479           
         C5        1.0000    0.64460   0.67820   0.87420   Biso      1.000     C          -0.028503           
         C6        1.0000    0.29890   0.72820   0.73900   Biso      1.000     C          -0.11446  
         C7        1.0000    0.74540   0.64750   0.23250   Biso      1.000     C          -0.02625  
         C8        1.0000    0.55200   0.98510   0.71450   Biso      1.000     C          -0.012112           
         C9        1.0000    0.59020   0.31420   0.41340   Biso      1.000     C          -0.121963           
         C10       1.0000    0.23390   0.22820   0.23900   Biso      1.000     C          -0.11496  
         C11       1.0000    0.80300   0.17820   0.37420   Biso      1.000     C          -0.028626           
         C12       1.0000    0.20470   0.47710   0.29230   Biso      1.000     C          0.244253  
         C13       1.0000    0.43270   0.56780   0.02000   Biso      1.000     C          0.018196  
         C14       1.0000    0.02590   0.97710   0.79230   Biso      1.000     C          0.244005  
         C15       1.0000    0.37120   0.25330   0.80950   Biso      1.000     C          0.295227  
         C16       1.0000    0.68220   0.81420   0.91340   Biso      1.000     C          -0.121449           
         C17       1.0000    0.66040   0.38570   0.39590   Biso      1.000     C          -0.015712           
         C18       1.0000    0.29860   0.50240   0.10240   Biso      1.000     C          -0.203558           
         C19       1.0000    0.30950   0.54820   0.04380   Biso      1.000     C          -0.054196           
         C20       1.0000    0.97950   0.06780   0.52000   Biso      1.000     C          0.018283  
         C21       1.0000    0.19340   0.55390   0.01350   Biso      1.000     C          0.259309  
         C22       1.0000    0.23920   0.05390   0.51350   Biso      1.000     C          0.259253  
         C23       1.0000    0.35990   0.28830   0.30910   Biso      1.000     C          0.018686  
         C24       1.0000    0.84630   0.02760   0.60380   Biso      1.000     C          -0.011971           
         C25       1.0000    0.96230   0.00070   0.63070   Biso      1.000     C          -0.114094           
         C26       1.0000    0.09660   0.00240   0.60240   Biso      1.000     C          -0.201051           
         C27       1.0000    0.09850   0.04820   0.54380   Biso      1.000     C          -0.055363           
         C28       1.0000    0.40630   0.50070   0.13070   Biso      1.000     C          -0.114819           
         C29       1.0000    0.33360   0.15430   0.27090   Biso      1.000     C          -0.002793           
         C30       1.0000    0.22980   0.83220   0.74540   Biso      1.000     C          -0.133839           
         C31       1.0000    0.57950   0.57810   0.28790   Biso      1.000     C          -0.188322           
         C32       1.0000    0.86660   0.25360   0.35740   Biso      1.000     C          -0.002795           
         C33       1.0000    0.09930   0.86400   0.78140   Biso      1.000     C          -0.023107           
         C34       1.0000    0.24120   0.65430   0.77090   Biso      1.000     C          -0.000981           
         C35       1.0000    0.56600   0.75330   0.30950   Biso      1.000     C          0.294313  
         C36       1.0000    0.61430   0.99200   0.75500   Biso      1.000     C          -0.108332           
         C37       1.0000    0.87700   0.06890   0.36090   Biso      1.000     C          0.272227  
         C38       1.0000    0.19260   0.33220   0.24540   Biso      1.000     C          -0.135825           
         C39       1.0000    0.43020   0.15750   0.77730   Biso      1.000     C          -0.0365   
         C40       1.0000    0.55450   0.07810   0.78790   Biso      1.000     C          -0.186829           
         C41       1.0000    0.66260   0.21050   0.40090   Biso      1.000     C          -0.195005           
         C42       1.0000    0.63870   0.49200   0.25500   Biso      1.000     C          -0.106299           
         C43       1.0000    0.69320   0.56890   0.86090   Biso      1.000     C          0.270959  
         C44       1.0000    0.25530   0.36400   0.28140   Biso      1.000     C          -0.023429           
         C45       1.0000    0.37460   0.14750   0.73250   Biso      1.000     C          -0.024494           
         C46       1.0000    0.55800   0.88570   0.89590   Biso      1.000     C          -0.014948           
         C47       1.0000    0.52230   0.52760   0.10380   Biso      1.000     C          -0.01366  
         C48       1.0000    0.52240   0.75360   0.85740   Biso      1.000     C          -0.001987           
         H1        1.0000    0.35550   0.08270   0.26850   Biso      1.000     H          0.078957  
         H2        1.0000    0.79010   0.42480   0.19500   Biso      1.000     H          0.090124  
         H3        1.0000    0.59010   0.92480   0.69500   Biso      1.000     H          0.089884  
         H4        1.0000    0.78350   0.70110   0.22390   Biso      1.000     H          0.083568  
         H5        1.0000    0.61240   0.45580   0.40360   Biso      1.000     H          0.085918  
         H6        1.0000    0.19690   0.20550   0.21370   Biso      1.000     H          0.121227  
         H7        1.0000    0.50290   0.58120   0.31680   Biso      1.000     H          0.09209   
         H8        1.0000    0.96010   0.23290   0.33810   Biso      1.000     H          0.082966  
         H9        1.0000    0.44550   0.58820   0.98180   Biso      1.000     H          0.078772  
         H10       1.0000    0.40570   0.30980   0.33160   Biso      1.000     H          0.102718  
         H11       1.0000    0.26880   0.88170   0.72610   Biso      1.000     H          0.105699  
         H12       1.0000    0.98450   0.08820   0.48180   Biso      1.000     H          0.078668  
         H13       1.0000    0.69940   0.93880   0.76200   Biso      1.000     H          0.11967   
         H14       1.0000    0.38390   0.70550   0.71370   Biso      1.000     H          0.120668  
         H15       1.0000    0.76000   0.02410   0.62390   Biso      1.000     H          0.075896  
         H16       1.0000    0.29330   0.58270   0.76850   Biso      1.000     H          0.078436  
         H17       1.0000    0.46890   0.73290   0.83810   Biso      1.000     H          0.082675  
         H18       1.0000    0.59910   0.08120   0.81680   Biso      1.000     H          0.091787  
         H19       1.0000    0.29150   0.20110   0.72390   Biso      1.000     H          0.083643  
         H20       1.0000    0.81150   0.66220   0.91060   Biso      1.000     H          0.079601  
         H21       1.0000    0.61570   0.16220   0.41060   Biso      1.000     H          0.077612  
         H22       1.0000    0.59200   0.52410   0.12390   Biso      1.000     H          0.077431  
         H23       1.0000    0.22590   0.47660   0.11940   Biso      1.000     H          0.092438  
         H24       1.0000    0.73480   0.83530   0.93290   Biso      1.000     H          0.122029  
         H25       1.0000    0.95130   0.98060   0.66900   Biso      1.000     H          0.111333  
         H26       1.0000    0.12340   0.38170   0.22610   Biso      1.000     H          0.106906  
         H27       1.0000    0.49700   0.33530   0.43290   Biso      1.000     H          0.122399  
         H28       1.0000    0.59980   0.43880   0.26200   Biso      1.000     H          0.118095  
         H29       1.0000    0.95290   0.80980   0.83160   Biso      1.000     H          0.101816  
         H30       1.0000    0.52820   0.95580   0.90360   Biso      1.000     H          0.085622  
         H31       1.0000    0.17810   0.97660   0.61940   Biso      1.000     H          0.090562  
         H32       1.0000    0.39910   0.48060   0.16900   Biso      1.000     H          0.111752  
         N1        1.0000    0.09430   0.03310   0.80630   Biso      1.000     N          -0.222535           
         N2        1.0000    0.88920   0.03360   0.79000   Biso      1.000     N          -0.241637           
         N3        1.0000    0.08300   0.56490   0.94610   Biso      1.000     N          -0.059175           
         N4        1.0000    0.99460   0.56340   0.99600   Biso      1.000     N          -0.044121           
         N5        1.0000    0.06330   0.62940   0.31300   Biso      1.000     N          -0.04216  
         N6        1.0000    0.80220   0.56520   0.20040   Biso      1.000     N          -0.212648           
         N7        1.0000    0.70930   0.41580   0.84140   Biso      1.000     N          -0.061558           
         N8        1.0000    0.19350   0.62890   0.30390   Biso      1.000     N          -0.012669           
         N9        1.0000    0.44870   0.29950   0.82170   Biso      1.000     N          -0.216885           
         N10       1.0000    0.43010   0.79950   0.32170   Biso      1.000     N          -0.216959           
         N11       1.0000    0.47680   0.85610   0.86750   Biso      1.000     N          -0.20907  
         N12       1.0000    0.22310   0.38650   0.84830   Biso      1.000     N          -0.036245           
         N13       1.0000    0.64270   0.80040   0.32380   Biso      1.000     N          -0.226006           
         N14       1.0000    0.87370   0.12890   0.80390   Biso      1.000     N          -0.011816           
         N15       1.0000    0.85650   0.05890   0.54870   Biso      1.000     N          -0.2006   
         N16       1.0000    0.54210   0.88650   0.34830   Biso      1.000     N          -0.036164           
         N17       1.0000    0.06510   0.55740   0.03680   Biso      1.000     N          -0.189364           
         N18       1.0000    0.28720   0.53360   0.29000   Biso      1.000     N          -0.24106  
         N19       1.0000    0.34070   0.05740   0.53680   Biso      1.000     N          -0.188863           
         N20       1.0000    0.61330   0.51510   0.85610   Biso      1.000     N          -0.245046           
         N21       1.0000    0.99430   0.12940   0.81300   Biso      1.000     N          -0.041576           
         N22       1.0000    0.06630   0.53310   0.30630   Biso      1.000     N          -0.221586           
         N23       1.0000    0.83190   0.51380   0.84900   Biso      1.000     N          -0.22153  
         N24       1.0000    0.43220   0.06520   0.70040   Biso      1.000     N          -0.214045           
         N25       1.0000    0.79960   0.35610   0.36750   Biso      1.000     N          -0.208498           
         N26       1.0000    0.01550   0.01510   0.35610   Biso      1.000     N          -0.245329           
         N27       1.0000    0.20960   0.55610   0.95870   Biso      1.000     N          -0.206874           
         N28       1.0000    0.90590   0.91860   0.33700   Biso      1.000     N          -0.029478           
         N29       1.0000    0.41510   0.88710   0.34670   Biso      1.000     N          -0.048302           
         N30       1.0000    0.23310   0.30040   0.82380   Biso      1.000     N          -0.227015           
         N31       1.0000    0.80530   0.01380   0.34900   Biso      1.000     N          -0.221682           
         N32       1.0000    0.27560   0.05610   0.45870   Biso      1.000     N          -0.205146           
         N33       1.0000    0.44600   0.06340   0.49600   Biso      1.000     N          -0.043745           
         N34       1.0000    0.35110   0.38710   0.84670   Biso      1.000     N          -0.047497           
         N35       1.0000    0.53590   0.55890   0.04870   Biso      1.000     N          -0.199785           
         N36       1.0000    0.03350   0.91580   0.34140   Biso      1.000     N          -0.0629   
         N37       1.0000    0.40600   0.06490   0.44610   Biso      1.000     N          -0.06061  
         N38       1.0000    0.11530   0.68330   0.80430   Biso      1.000     N          -0.202597           
         N39       1.0000    0.83850   0.41860   0.83700   Biso      1.000     N          -0.03054  
         N40       1.0000    0.39710   0.18330   0.30430   Biso      1.000     N          -0.200955 