
##########################################################################
#               Crystallographic Information Format file
#               Produced by PyCifRW module
#
#  This is a CIF file.  CIF has been adopted by the International
#  Union of Crystallography as the standard for data archiving and
#  transmission.
#
#  For information on this file format, follow the CIF links at
#  http://www.iucr.org
##########################################################################

data_image0

_cell_length_a                          14.6116
_cell_length_b                          15.5623
_cell_length_c                          15.5623
_cell_angle_alpha                       112.887
_cell_angle_beta                        95.8753
_cell_angle_gamma                       95.8753
_symmetry_space_group_name_H-M          'P 1'
_symmetry_int_tables_number             1
loop_
  _symmetry_equiv_pos_as_xyz
         'x, y, z' 
loop_
  _atom_site_label
  _atom_site_occupancy
  _atom_site_fract_x
  _atom_site_fract_y
  _atom_site_fract_z
  _atom_site_thermal_displace_type
  _atom_site_B_iso_or_equiv
  _atom_site_type_symbol
  _atom_site_charge
         C1        1.0000    0.81280   0.91810   0.24870   Biso      1.000     C          0.019173  
         C2        1.0000    0.18720   0.08190   0.75130   Biso      1.000     C          0.019239  
         C3        1.0000    0.78810   0.77740   0.10580   Biso      1.000     C          0.181347  
         C4        1.0000    0.10660   0.93540   0.34160   Biso      1.000     C          0.131437  
         C5        1.0000    0.19220   0.45670   0.04690   Biso      1.000     C          -0.013621           
         C6        1.0000    0.89340   0.65840   0.06460   Biso      1.000     C          0.131411  
         C7        1.0000    0.83230   0.82940   0.19700   Biso      1.000     C          -0.211643           
         C8        1.0000    0.10660   0.34160   0.93540   Biso      1.000     C          0.131437  
         C9        1.0000    0.78810   0.10580   0.77740   Biso      1.000     C          0.181348  
         C10       1.0000    0.16770   0.17060   0.80300   Biso      1.000     C          -0.211624           
         C11       1.0000    0.25530   0.79280   0.04720   Biso      1.000     C          -0.125442           
         C12       1.0000    0.21190   0.22260   0.89420   Biso      1.000     C          0.18138   
         C13       1.0000    0.83230   0.19700   0.82940   Biso      1.000     C          -0.211647           
         C14       1.0000    0.16770   0.80300   0.17060   Biso      1.000     C          -0.211629           
         C15       1.0000    0.86630   0.97870   0.34550   Biso      1.000     C          0.581835  
         C16       1.0000    0.18720   0.75130   0.08190   Biso      1.000     C          0.019243  
         C17       1.0000    0.72000   0.81090   0.06570   Biso      1.000     C          -0.199651           
         C18       1.0000    0.62360   0.93700   0.07460   Biso      1.000     C          0.609022  
         C19       1.0000    0.86630   0.34550   0.97870   Biso      1.000     C          0.581836  
         C20       1.0000    0.74470   0.95280   0.20720   Biso      1.000     C          -0.125398           
         C21       1.0000    0.89340   0.06460   0.65840   Biso      1.000     C          0.131411  
         C22       1.0000    0.37640   0.92540   0.06300   Biso      1.000     C          0.608902  
         C23       1.0000    0.69750   0.89880   0.11600   Biso      1.000     C          0.005694  
         C24       1.0000    0.28000   0.93430   0.18910   Biso      1.000     C          -0.199492           
         C25       1.0000    0.24400   0.01870   0.39050   Biso      1.000     C          -0.116929           
         C26       1.0000    0.75600   0.60950   0.98130   Biso      1.000     C          -0.116954           
         C27       1.0000    0.24400   0.39050   0.01870   Biso      1.000     C          -0.116884           
         C28       1.0000    0.62360   0.07460   0.93700   Biso      1.000     C          0.609023  
         C29       1.0000    0.21190   0.89420   0.22260   Biso      1.000     C          0.181387  
         C30       1.0000    0.28000   0.18910   0.93430   Biso      1.000     C          -0.199486           
         C31       1.0000    0.25530   0.04720   0.79280   Biso      1.000     C          -0.125442           
         C32       1.0000    0.30250   0.88400   0.10120   Biso      1.000     C          0.005677  
         C33       1.0000    0.37640   0.06300   0.92540   Biso      1.000     C          0.608902  
         C34       1.0000    0.30250   0.10120   0.88400   Biso      1.000     C          0.005676  
         C35       1.0000    0.81280   0.24870   0.91810   Biso      1.000     C          0.019177  
         C36       1.0000    0.80780   0.54330   0.95310   Biso      1.000     C          -0.013544           
         C37       1.0000    0.13370   0.02130   0.65450   Biso      1.000     C          0.581803  
         C38       1.0000    0.69750   0.11600   0.89880   Biso      1.000     C          0.005692  
         C39       1.0000    0.75600   0.98130   0.60950   Biso      1.000     C          -0.116954           
         C40       1.0000    0.72000   0.06570   0.81090   Biso      1.000     C          -0.199648           
         C41       1.0000    0.74470   0.20720   0.95280   Biso      1.000     C          -0.125398           
         C42       1.0000    0.19220   0.04690   0.45670   Biso      1.000     C          -0.013575           
         C43       1.0000    0.13370   0.65450   0.02130   Biso      1.000     C          0.581803  
         C44       1.0000    0.80780   0.95310   0.54330   Biso      1.000     C          -0.013545           
         Cu1       1.0000    0.48711   0.92203   0.92203   Biso      1.000     Cu          0.881038  
         Cu2       1.0000    0.51289   0.07797   0.07797   Biso      1.000     Cu          0.876822  
         Cu3       1.0000    0.00000   0.00000   0.50000   Biso      1.000     Cu          0.789908  
         Cu4       1.0000    0.00000   0.50000   0.00000   Biso      1.000     Cu          0.78992   
         H1        1.0000    0.73070   0.24070   0.01270   Biso      1.000     H          0.137567  
         H2        1.0000    0.68910   0.00480   0.77440   Biso      1.000     H          0.136187  
         H3        1.0000    0.31090   0.99520   0.22560   Biso      1.000     H          0.136223  
         H4        1.0000    0.21140   0.51540   0.09660   Biso      1.000     H          0.125563  
         H5        1.0000    0.73070   0.01270   0.24070   Biso      1.000     H          0.137566  
         H6        1.0000    0.87600   0.80410   0.22410   Biso      1.000     H          0.130338  
         H7        1.0000    0.12400   0.19590   0.77590   Biso      1.000     H          0.130365  
         H8        1.0000    0.78860   0.48460   0.90340   Biso      1.000     H          0.12556   
         H9        1.0000    0.31090   0.22560   0.99520   Biso      1.000     H          0.136222  
         H10       1.0000    0.26930   0.98730   0.75930   Biso      1.000     H          0.137542  
         H11       1.0000    0.21140   0.09660   0.51540   Biso      1.000     H          0.125559  
         H12       1.0000    0.69400   0.60620   0.95760   Biso      1.000     H          0.140622  
         H13       1.0000    0.26930   0.75930   0.98730   Biso      1.000     H          0.137542  
         H14       1.0000    0.05580   0.89130   0.30330   Biso      1.000     H          0.100929  
         H15       1.0000    0.30600   0.04240   0.39380   Biso      1.000     H          0.140638  
         H16       1.0000    0.30600   0.39380   0.04240   Biso      1.000     H          0.140634  
         H17       1.0000    0.87600   0.22410   0.80410   Biso      1.000     H          0.130338  
         H18       1.0000    0.94420   0.69670   0.10870   Biso      1.000     H          0.100907  
         H19       1.0000    0.94420   0.10870   0.69670   Biso      1.000     H          0.100907  
         H20       1.0000    0.12400   0.77590   0.19590   Biso      1.000     H          0.130365  
         H21       1.0000    0.78860   0.90340   0.48460   Biso      1.000     H          0.12556   
         H22       1.0000    0.68910   0.77440   0.00480   Biso      1.000     H          0.136186  
         H23       1.0000    0.69400   0.95760   0.60620   Biso      1.000     H          0.140622  
         H24       1.0000    0.05580   0.30330   0.89130   Biso      1.000     H          0.100929  
         N1        1.0000    0.89510   0.00733   0.57247   Biso      1.000     N          -0.271449           
         N2        1.0000    0.10490   0.99267   0.42753   Biso      1.000     N          -0.271354           
         N3        1.0000    0.81280   0.68638   0.05442   Biso      1.000     N          0.018593  
         N4        1.0000    0.10490   0.42753   0.99267   Biso      1.000     N          -0.271351           
         N5        1.0000    0.18720   0.31362   0.94558   Biso      1.000     N          0.018591  
         N6        1.0000    0.81280   0.05442   0.68638   Biso      1.000     N          0.018592  
         N7        1.0000    0.89510   0.57247   0.00733   Biso      1.000     N          -0.271452           
         N8        1.0000    0.18720   0.94558   0.31362   Biso      1.000     N          0.018594  
         O1        1.0000    0.60650   0.12358   0.01762   Biso      1.000     O          -0.528761           
         O2        1.0000    0.14050   0.93950   0.61670   Biso      1.000     O          -0.555817           
         O3        1.0000    0.60650   0.01762   0.12358   Biso      1.000     O          -0.528761           
         O4        1.0000    0.58460   0.99202   0.88618   Biso      1.000     O          -0.54319  
         O5        1.0000    0.41540   0.00798   0.11382   Biso      1.000     O          -0.542951           
         O6        1.0000    0.91540   0.38190   0.93570   Biso      1.000     O          -0.58676  
         O7        1.0000    0.41540   0.11382   0.00798   Biso      1.000     O          -0.542951           
         O8        1.0000    0.39350   0.87642   0.98238   Biso      1.000     O          -0.528484           
         O9        1.0000    0.08460   0.06430   0.61810   Biso      1.000     O          -0.586454           
         O10       1.0000    0.39350   0.98238   0.87642   Biso      1.000     O          -0.528484           
         O11       1.0000    0.91540   0.93570   0.38190   Biso      1.000     O          -0.586756           
         O12       1.0000    0.85950   0.38330   0.06050   Biso      1.000     O          -0.555919           
         O13       1.0000    0.08460   0.61810   0.06430   Biso      1.000     O          -0.586458           
         O14       1.0000    0.85950   0.06050   0.38330   Biso      1.000     O          -0.555919           
         O15       1.0000    0.58460   0.88618   0.99202   Biso      1.000     O          -0.54319  
         O16       1.0000    0.14050   0.61670   0.93950   Biso      1.000     O          -0.555818 