
##########################################################################
#               Crystallographic Information Format file
#               Produced by PyCifRW module
#
#  This is a CIF file.  CIF has been adopted by the International
#  Union of Crystallography as the standard for data archiving and
#  transmission.
#
#  For information on this file format, follow the CIF links at
#  http://www.iucr.org
##########################################################################

data_image0

_cell_length_a                          28.044
_cell_length_b                          9.6262
_cell_length_c                          8.2546
_cell_angle_alpha                       90
_cell_angle_beta                        90
_cell_angle_gamma                       90
_symmetry_space_group_name_H-M          'P 1'
_symmetry_int_tables_number             1
loop_
  _symmetry_equiv_pos_as_xyz
         'x, y, z' 
loop_
  _atom_site_label
  _atom_site_occupancy
  _atom_site_fract_x
  _atom_site_fract_y
  _atom_site_fract_z
  _atom_site_thermal_displace_type
  _atom_site_B_iso_or_equiv
  _atom_site_type_symbol
  _atom_site_charge
         C1        1.0000    0.70689   0.79790   0.23170   Biso      1.000     C          0.214459  
         C2        1.0000    0.34107   0.16590   0.73360   Biso      1.000     C          -0.251129           
         C3        1.0000    0.93970   0.34190   0.18740   Biso      1.000     C          0.477634  
         C4        1.0000    0.29311   0.20210   0.73170   Biso      1.000     C          0.21446199999999999           
         C5        1.0000    0.26389   0.16770   0.59860   Biso      1.000     C          -0.01669  
         C6        1.0000    0.56030   0.84190   0.68740   Biso      1.000     C          0.477634  
         C7        1.0000    0.28405   0.09430   0.47240   Biso      1.000     C          -0.138996           
         C8        1.0000    0.06030   0.65810   0.68740   Biso      1.000     C          0.477628  
         C9        1.0000    0.33159   0.05480   0.47250   Biso      1.000     C          -0.11741300000000002          
         C10       1.0000    0.36001   0.09170   0.60330   Biso      1.000     C          0.004404  
         C11       1.0000    0.41196   0.05590   0.60600   Biso      1.000     C          0.597619  
         C12       1.0000    0.73611   0.83230   0.09860   Biso      1.000     C          -0.016692           
         C13       1.0000    0.91196   0.44410   0.60600   Biso      1.000     C          0.597614  
         C14       1.0000    0.86001   0.40830   0.60330   Biso      1.000     C          0.004407  
         C15       1.0000    0.83159   0.44520   0.47250   Biso      1.000     C          -0.11740999999999999          
         C16       1.0000    0.86676   0.80700   0.20690   Biso      1.000     C          -0.252521           
         C17       1.0000    0.81911   0.84530   0.20950   Biso      1.000     C          0.219529  
         C18       1.0000    0.43970   0.15810   0.18740   Biso      1.000     C          0.47763900000000004           
         C19       1.0000    0.76389   0.33230   0.59860   Biso      1.000     C          -0.01669  
         C20       1.0000    0.79311   0.29790   0.73170   Biso      1.000     C          0.21446300000000001           
         C21       1.0000    0.84107   0.33410   0.73360   Biso      1.000     C          -0.251126           
         C22       1.0000    0.93480   0.67530   0.08790   Biso      1.000     C          0.596288  
         C23       1.0000    0.71265   0.29200   0.59670   Biso      1.000     C          -0.005051           
         C24       1.0000    0.69540   0.20650   0.47840   Biso      1.000     C          -0.142536           
         C25       1.0000    0.70600   0.71680   0.50380   Biso      1.000     C          -0.25186  
         C26       1.0000    0.64758   0.16840   0.47160   Biso      1.000     C          -0.110672           
         C27       1.0000    0.67260   0.48390   0.94440   Biso      1.000     C          -0.24890199999999998          
         C28       1.0000    0.61671   0.21750   0.58830   Biso      1.000     C          0.017311  
         C29       1.0000    0.63324   0.30700   0.70690   Biso      1.000     C          -0.25251799999999996          
         C30       1.0000    0.82740   0.98390   0.44440   Biso      1.000     C          -0.24890199999999998          
         C31       1.0000    0.68089   0.34530   0.70950   Biso      1.000     C          0.219527  
         C32       1.0000    0.78405   0.40570   0.47240   Biso      1.000     C          -0.138997           
         C33       1.0000    0.56520   0.17530   0.58790   Biso      1.000     C          0.5962850000000001  
         C34       1.0000    0.21265   0.20800   0.59670   Biso      1.000     C          -0.005052           
         C35       1.0000    0.19540   0.29350   0.47840   Biso      1.000     C          -0.142534           
         C36       1.0000    0.18089   0.15470   0.70950   Biso      1.000     C          0.21952199999999997           
         C37       1.0000    0.21595   0.59430   0.97240   Biso      1.000     C          -0.138997           
         C38       1.0000    0.06520   0.32470   0.58790   Biso      1.000     C          0.5962810000000001  
         C39       1.0000    0.16841   0.55480   0.97250   Biso      1.000     C          -0.11741800000000001          
         C40       1.0000    0.13999   0.59170   0.10330   Biso      1.000     C          0.004406  
         C41       1.0000    0.08804   0.55590   0.10600   Biso      1.000     C          0.597611  
         C42       1.0000    0.23611   0.66770   0.09860   Biso      1.000     C          -0.016691           
         C43       1.0000    0.29400   0.28320   0.00380   Biso      1.000     C          -0.251865           
         C44       1.0000    0.58804   0.94410   0.10600   Biso      1.000     C          0.597621  
         C45       1.0000    0.63999   0.90830   0.10330   Biso      1.000     C          0.004407  
         C46       1.0000    0.17260   0.01610   0.94440   Biso      1.000     C          -0.248901           
         C47       1.0000    0.66841   0.94520   0.97250   Biso      1.000     C          -0.117416           
         C48       1.0000    0.71595   0.90570   0.97240   Biso      1.000     C          -0.138993           
         C49       1.0000    0.65893   0.83410   0.23360   Biso      1.000     C          -0.251127           
         C50       1.0000    0.78735   0.79200   0.09670   Biso      1.000     C          -0.0050479999999999995        
         C51       1.0000    0.32740   0.51610   0.44440   Biso      1.000     C          -0.248901           
         C52       1.0000    0.20689   0.70210   0.23170   Biso      1.000     C          0.21445999999999998           
         C53       1.0000    0.80460   0.70650   0.97840   Biso      1.000     C          -0.142538           
         C54       1.0000    0.88329   0.71750   0.08830   Biso      1.000     C          0.017315  
         C55       1.0000    0.14758   0.33160   0.47160   Biso      1.000     C          -0.110679           
         C56       1.0000    0.20600   0.78320   0.50380   Biso      1.000     C          -0.251863           
         C57       1.0000    0.43480   0.82470   0.08790   Biso      1.000     C          0.596288  
         C58       1.0000    0.31911   0.65470   0.20950   Biso      1.000     C          0.21952399999999997           
         C59       1.0000    0.15893   0.66590   0.23360   Biso      1.000     C          -0.251127           
         C60       1.0000    0.85242   0.66840   0.97160   Biso      1.000     C          -0.110668           
         C61       1.0000    0.38329   0.78250   0.08830   Biso      1.000     C          0.017311  
         C62       1.0000    0.11671   0.28250   0.58830   Biso      1.000     C          0.017313  
         C63       1.0000    0.35242   0.83160   0.97160   Biso      1.000     C          -0.11067300000000001          
         C64       1.0000    0.13324   0.19300   0.70690   Biso      1.000     C          -0.25251599999999996          
         C65       1.0000    0.30460   0.79350   0.97840   Biso      1.000     C          -0.142541           
         C66       1.0000    0.28735   0.70800   0.09670   Biso      1.000     C          -0.0050409999999999995        
         C67       1.0000    0.36676   0.69300   0.20690   Biso      1.000     C          -0.25251599999999996          
         C68       1.0000    0.79400   0.21680   0.00380   Biso      1.000     C          -0.251863           
         Eu1       1.0000    0.49623   0.08544   0.90702   Biso      1.000     Eu          1.360366  
         Eu2       1.0000    0.99623   0.41456   0.90702   Biso      1.000     Eu          1.3603610000000002  
         Eu3       1.0000    0.50377   0.91456   0.40702   Biso      1.000     Eu          1.360372  
         Eu4       1.0000    0.00377   0.58544   0.40702   Biso      1.000     Eu          1.360364  
         H1        1.0000    0.14480   0.96940   0.90430   Biso      1.000     H          0.13161   
         H2        1.0000    0.16310   0.09390   0.00960   Biso      1.000     H          0.131907  
         H3        1.0000    0.63970   0.80910   0.32060   Biso      1.000     H          0.14963800000000002           
         H4        1.0000    0.19110   0.95290   0.00870   Biso      1.000     H          0.138764  
         H5        1.0000    0.32520   0.32310   0.99280   Biso      1.000     H          0.136739  
         H6        1.0000    0.29670   0.19110   0.04750   Biso      1.000     H          0.1324    
         H7        1.0000    0.27520   0.33960   0.07530   Biso      1.000     H          0.140441  
         H8        1.0000    0.11240   0.15860   0.78480   Biso      1.000     H          0.13983399999999999           
         H9        1.0000    0.78380   0.67270   0.90000   Biso      1.000     H          0.117565  
         H10       1.0000    0.13660   0.38940   0.38940   Biso      1.000     H          0.119556  
         H11       1.0000    0.70330   0.80890   0.54750   Biso      1.000     H          0.132399  
         H12       1.0000    0.21620   0.32730   0.40000   Biso      1.000     H          0.117565  
         H13       1.0000    0.36030   0.19090   0.82060   Biso      1.000     H          0.14964   
         H14       1.0000    0.88760   0.84140   0.28480   Biso      1.000     H          0.13983399999999999           
         H15       1.0000    0.26510   0.07040   0.38430   Biso      1.000     H          0.117335  
         H16       1.0000    0.34420   0.00450   0.38650   Biso      1.000     H          0.12095999999999998           
         H17       1.0000    0.42110   0.18310   0.27620   Biso      1.000     H          0.026806  
         H18       1.0000    0.85520   0.03060   0.40430   Biso      1.000     H          0.13161   
         H19       1.0000    0.83690   0.90610   0.50960   Biso      1.000     H          0.131908  
         H20       1.0000    0.80890   0.04710   0.50870   Biso      1.000     H          0.138763  
         H21       1.0000    0.72480   0.66040   0.57530   Biso      1.000     H          0.14044   
         H22       1.0000    0.67480   0.67690   0.49280   Biso      1.000     H          0.136738  
         H23       1.0000    0.86340   0.61060   0.88940   Biso      1.000     H          0.119554  
         H24       1.0000    0.07890   0.68310   0.77620   Biso      1.000     H          0.026811  
         H25       1.0000    0.65580   0.99550   0.88650   Biso      1.000     H          0.120959  
         H26       1.0000    0.84420   0.49550   0.38650   Biso      1.000     H          0.120958  
         H27       1.0000    0.73490   0.92960   0.88430   Biso      1.000     H          0.11733299999999999           
         H28       1.0000    0.92110   0.31690   0.27620   Biso      1.000     H          0.026807  
         H29       1.0000    0.35520   0.46940   0.40430   Biso      1.000     H          0.13161199999999998           
         H30       1.0000    0.33690   0.59390   0.50960   Biso      1.000     H          0.131909  
         H31       1.0000    0.30890   0.45290   0.50870   Biso      1.000     H          0.138764  
         H32       1.0000    0.17480   0.82310   0.49280   Biso      1.000     H          0.136738  
         H33       1.0000    0.20330   0.69110   0.54750   Biso      1.000     H          0.132399  
         H34       1.0000    0.22480   0.83960   0.57530   Biso      1.000     H          0.140441  
         H35       1.0000    0.38760   0.65860   0.28480   Biso      1.000     H          0.13983399999999999           
         H36       1.0000    0.36340   0.88940   0.88940   Biso      1.000     H          0.119555  
         H37       1.0000    0.28380   0.82730   0.90000   Biso      1.000     H          0.117566  
         H38       1.0000    0.13970   0.69090   0.32060   Biso      1.000     H          0.14964   
         H39       1.0000    0.23490   0.57040   0.88430   Biso      1.000     H          0.117334  
         H40       1.0000    0.15580   0.50450   0.88650   Biso      1.000     H          0.12095999999999998           
         H41       1.0000    0.76510   0.42960   0.38430   Biso      1.000     H          0.117334  
         H42       1.0000    0.86030   0.30910   0.82060   Biso      1.000     H          0.14963900000000002           
         H43       1.0000    0.57890   0.81690   0.77620   Biso      1.000     H          0.026810000000000004          
         H44       1.0000    0.63660   0.11060   0.38940   Biso      1.000     H          0.119555  
         H45       1.0000    0.64480   0.53060   0.90430   Biso      1.000     H          0.131613  
         H46       1.0000    0.66310   0.40610   0.00960   Biso      1.000     H          0.131911  
         H47       1.0000    0.71620   0.17270   0.40000   Biso      1.000     H          0.117566  
         H48       1.0000    0.82520   0.17690   0.99280   Biso      1.000     H          0.136738  
         H49       1.0000    0.79670   0.30890   0.04750   Biso      1.000     H          0.132399  
         H50       1.0000    0.77520   0.16040   0.07530   Biso      1.000     H          0.140441  
         H51       1.0000    0.69110   0.54710   0.00870   Biso      1.000     H          0.138766  
         H52       1.0000    0.61240   0.34140   0.78480   Biso      1.000     H          0.13983199999999998           
         O1        1.0000    0.19958   0.06220   0.81610   Biso      1.000     O          -0.137801           
         O2        1.0000    0.07212   0.47520   0.00050   Biso      1.000     O          -0.576666           
         O3        1.0000    0.06308   0.61050   0.21430   Biso      1.000     O          -0.528613           
         O4        1.0000    0.45088   0.88580   0.96560   Biso      1.000     O          -0.5252060000000001           
         O5        1.0000    0.45931   0.79580   0.21110   Biso      1.000     O          -0.544359           
         O6        1.0000    0.22818   0.77700   0.35010   Biso      1.000     O          -0.14244500000000002          
         O7        1.0000    0.30042   0.56220   0.31610   Biso      1.000     O          -0.137798           
         O8        1.0000    0.97706   0.41210   0.21260   Biso      1.000     O          -0.587102           
         O9        1.0000    0.92638   0.30480   0.05230   Biso      1.000     O          -0.513188           
         O10       1.0000    0.42638   0.19520   0.05230   Biso      1.000     O          -0.5131899999999999           
         O11       1.0000    0.47706   0.08790   0.21260   Biso      1.000     O          -0.5870989999999999           
         O12       1.0000    0.80042   0.93780   0.31610   Biso      1.000     O          -0.137797           
         O13       1.0000    0.72818   0.72300   0.35010   Biso      1.000     O          -0.14244500000000002          
         O14       1.0000    0.95931   0.70420   0.21110   Biso      1.000     O          -0.5443520000000001           
         O15       1.0000    0.95088   0.61420   0.96560   Biso      1.000     O          -0.525219           
         O16       1.0000    0.56308   0.88950   0.21430   Biso      1.000     O          -0.528629           
         O17       1.0000    0.57212   0.02480   0.00050   Biso      1.000     O          -0.5766789999999999           
         O18       1.0000    0.07362   0.69520   0.55230   Biso      1.000     O          -0.513178           
         O19       1.0000    0.42788   0.97520   0.50050   Biso      1.000     O          -0.576681           
         O20       1.0000    0.43692   0.11050   0.71430   Biso      1.000     O          -0.528622           
         O21       1.0000    0.04912   0.38580   0.46560   Biso      1.000     O          -0.5252020000000001           
         O22       1.0000    0.92788   0.52480   0.50050   Biso      1.000     O          -0.576685           
         O23       1.0000    0.93692   0.38950   0.71430   Biso      1.000     O          -0.528618           
         O24       1.0000    0.54912   0.11420   0.46560   Biso      1.000     O          -0.525209           
         O25       1.0000    0.54069   0.20420   0.71110   Biso      1.000     O          -0.5443560000000001           
         O26       1.0000    0.77182   0.22300   0.85010   Biso      1.000     O          -0.14244500000000002          
         O27       1.0000    0.69958   0.43780   0.81610   Biso      1.000     O          -0.137797           
         O28       1.0000    0.02294   0.58790   0.71260   Biso      1.000     O          -0.587106           
         O29       1.0000    0.04069   0.29580   0.71110   Biso      1.000     O          -0.544353           
         O30       1.0000    0.52294   0.91210   0.71260   Biso      1.000     O          -0.5871069999999999           
         O31       1.0000    0.27182   0.27700   0.85010   Biso      1.000     O          -0.14244  
         O32       1.0000    0.57362   0.80480   0.55230   Biso      1.000     O          -0.513189 