
##########################################################################
#               Crystallographic Information Format file
#               Produced by PyCifRW module
#
#  This is a CIF file.  CIF has been adopted by the International
#  Union of Crystallography as the standard for data archiving and
#  transmission.
#
#  For information on this file format, follow the CIF links at
#  http://www.iucr.org
##########################################################################

data_image0

_cell_length_a                          28.017
_cell_length_b                          9.6175
_cell_length_c                          8.2586
_cell_angle_alpha                       90
_cell_angle_beta                        90
_cell_angle_gamma                       90
_symmetry_space_group_name_H-M          'P 1'
_symmetry_int_tables_number             1
loop_
  _symmetry_equiv_pos_as_xyz
         'x, y, z' 
loop_
  _atom_site_label
  _atom_site_occupancy
  _atom_site_fract_x
  _atom_site_fract_y
  _atom_site_fract_z
  _atom_site_thermal_displace_type
  _atom_site_B_iso_or_equiv
  _atom_site_type_symbol
  _atom_site_charge
         C1        1.0000    0.70708   0.79730   0.23120   Biso      1.000     C          0.205161  
         C2        1.0000    0.34098   0.16630   0.73260   Biso      1.000     C          -0.248258           
         C3        1.0000    0.93981   0.34350   0.18690   Biso      1.000     C          0.525479  
         C4        1.0000    0.29292   0.20270   0.73120   Biso      1.000     C          0.20516399999999999           
         C5        1.0000    0.26379   0.16860   0.59930   Biso      1.000     C          -0.022396           
         C6        1.0000    0.56019   0.84350   0.68690   Biso      1.000     C          0.525479  
         C7        1.0000    0.28411   0.09510   0.47160   Biso      1.000     C          -0.135108           
         C8        1.0000    0.06019   0.65650   0.68690   Biso      1.000     C          0.525479  
         C9        1.0000    0.33207   0.05630   0.47140   Biso      1.000     C          -0.14061099999999999          
         C10       1.0000    0.36013   0.09370   0.60370   Biso      1.000     C          -0.019615           
         C11       1.0000    0.41221   0.05770   0.60760   Biso      1.000     C          0.670837  
         C12       1.0000    0.73621   0.83140   0.09930   Biso      1.000     C          -0.022396           
         C13       1.0000    0.91221   0.44230   0.60760   Biso      1.000     C          0.670837  
         C14       1.0000    0.86013   0.40630   0.60370   Biso      1.000     C          -0.019619           
         C15       1.0000    0.83207   0.44370   0.47140   Biso      1.000     C          -0.14060999999999998          
         C16       1.0000    0.86694   0.80750   0.20640   Biso      1.000     C          -0.259193           
         C17       1.0000    0.81923   0.84550   0.21000   Biso      1.000     C          0.212432  
         C18       1.0000    0.43981   0.15650   0.18690   Biso      1.000     C          0.525479  
         C19       1.0000    0.76379   0.33140   0.59930   Biso      1.000     C          -0.022396           
         C20       1.0000    0.79292   0.29730   0.73120   Biso      1.000     C          0.205161  
         C21       1.0000    0.84098   0.33370   0.73260   Biso      1.000     C          -0.24825300000000003          
         C22       1.0000    0.93528   0.67490   0.08660   Biso      1.000     C          0.67583   
         C23       1.0000    0.71234   0.29260   0.59440   Biso      1.000     C          -0.005607           
         C24       1.0000    0.69542   0.20610   0.47800   Biso      1.000     C          -0.13534100000000002          
         C25       1.0000    0.70580   0.71640   0.50340   Biso      1.000     C          -0.25288099999999997          
         C26       1.0000    0.64721   0.16860   0.47250   Biso      1.000     C          -0.13711600000000002          
         C27       1.0000    0.67180   0.48740   0.94680   Biso      1.000     C          -0.248554           
         C28       1.0000    0.61624   0.21790   0.58840   Biso      1.000     C          -0.011889           
         C29       1.0000    0.63306   0.30750   0.70640   Biso      1.000     C          -0.259191           
         C30       1.0000    0.82820   0.98740   0.44680   Biso      1.000     C          -0.248554           
         C31       1.0000    0.68077   0.34550   0.71000   Biso      1.000     C          0.21243299999999998           
         C32       1.0000    0.78411   0.40490   0.47160   Biso      1.000     C          -0.135108           
         C33       1.0000    0.56472   0.17490   0.58660   Biso      1.000     C          0.67583   
         C34       1.0000    0.21234   0.20740   0.59440   Biso      1.000     C          -0.005607           
         C35       1.0000    0.19542   0.29390   0.47800   Biso      1.000     C          -0.13534100000000002          
         C36       1.0000    0.18077   0.15450   0.71000   Biso      1.000     C          0.21243   
         C37       1.0000    0.21589   0.59510   0.97160   Biso      1.000     C          -0.135108           
         C38       1.0000    0.06472   0.32510   0.58660   Biso      1.000     C          0.67583   
         C39       1.0000    0.16793   0.55630   0.97140   Biso      1.000     C          -0.14061099999999999          
         C40       1.0000    0.13987   0.59370   0.10370   Biso      1.000     C          -0.019618           
         C41       1.0000    0.08779   0.55770   0.10760   Biso      1.000     C          0.670837  
         C42       1.0000    0.23621   0.66860   0.09930   Biso      1.000     C          -0.022397           
         C43       1.0000    0.29420   0.28360   0.00340   Biso      1.000     C          -0.25288  
         C44       1.0000    0.58779   0.94230   0.10760   Biso      1.000     C          0.670837  
         C45       1.0000    0.63987   0.90630   0.10370   Biso      1.000     C          -0.019619           
         C46       1.0000    0.17180   0.01260   0.94680   Biso      1.000     C          -0.248554           
         C47       1.0000    0.66793   0.94370   0.97140   Biso      1.000     C          -0.14060899999999998          
         C48       1.0000    0.71589   0.90490   0.97160   Biso      1.000     C          -0.135108           
         C49       1.0000    0.65902   0.83370   0.23260   Biso      1.000     C          -0.24825300000000003          
         C50       1.0000    0.78766   0.79260   0.09440   Biso      1.000     C          -0.005606           
         C51       1.0000    0.32820   0.51260   0.44680   Biso      1.000     C          -0.248554           
         C52       1.0000    0.20708   0.70270   0.23120   Biso      1.000     C          0.205161  
         C53       1.0000    0.80458   0.70610   0.97800   Biso      1.000     C          -0.13534200000000002          
         C54       1.0000    0.88376   0.71790   0.08840   Biso      1.000     C          -0.011894           
         C55       1.0000    0.14721   0.33140   0.47250   Biso      1.000     C          -0.13711600000000002          
         C56       1.0000    0.20580   0.78360   0.50340   Biso      1.000     C          -0.25288099999999997          
         C57       1.0000    0.43528   0.82510   0.08660   Biso      1.000     C          0.67583   
         C58       1.0000    0.31923   0.65450   0.21000   Biso      1.000     C          0.212429  
         C59       1.0000    0.15902   0.66630   0.23260   Biso      1.000     C          -0.24825300000000003          
         C60       1.0000    0.85279   0.66860   0.97250   Biso      1.000     C          -0.13710899999999998          
         C61       1.0000    0.38376   0.78210   0.08840   Biso      1.000     C          -0.011895999999999999         
         C62       1.0000    0.11624   0.28210   0.58840   Biso      1.000     C          -0.011889           
         C63       1.0000    0.35279   0.83140   0.97250   Biso      1.000     C          -0.137107           
         C64       1.0000    0.13306   0.19250   0.70640   Biso      1.000     C          -0.259189           
         C65       1.0000    0.30458   0.79390   0.97800   Biso      1.000     C          -0.135357           
         C66       1.0000    0.28766   0.70740   0.09440   Biso      1.000     C          -0.005592           
         C67       1.0000    0.36694   0.69250   0.20640   Biso      1.000     C          -0.25918800000000003          
         C68       1.0000    0.79420   0.21640   0.00340   Biso      1.000     C          -0.25288  
         Gd1       1.0000    0.49625   0.08488   0.90705   Biso      1.000     Gd          2.084602  
         Gd2       1.0000    0.99625   0.41512   0.90705   Biso      1.000     Gd          2.084602  
         Gd3       1.0000    0.50375   0.91512   0.40705   Biso      1.000     Gd          2.0846009999999997  
         Gd4       1.0000    0.00375   0.58488   0.40705   Biso      1.000     Gd          2.0846009999999997  
         H1        1.0000    0.14380   0.96710   0.90610   Biso      1.000     H          0.124928  
         H2        1.0000    0.16260   0.08920   0.01440   Biso      1.000     H          0.13048900000000002           
         H3        1.0000    0.63990   0.80930   0.32000   Biso      1.000     H          0.142675  
         H4        1.0000    0.19030   0.94770   0.00890   Biso      1.000     H          0.14269600000000002           
         H5        1.0000    0.32540   0.32370   0.99150   Biso      1.000     H          0.128803  
         H6        1.0000    0.29700   0.19150   0.04700   Biso      1.000     H          0.128351  
         H7        1.0000    0.27550   0.33990   0.07560   Biso      1.000     H          0.139999  
         H8        1.0000    0.11220   0.15760   0.78400   Biso      1.000     H          0.129018  
         H9        1.0000    0.78370   0.67120   0.90040   Biso      1.000     H          0.11919600000000001           
         H10       1.0000    0.13610   0.38960   0.39070   Biso      1.000     H          0.114324  
         H11       1.0000    0.70300   0.80850   0.54700   Biso      1.000     H          0.128351  
         H12       1.0000    0.21630   0.32880   0.40040   Biso      1.000     H          0.11919600000000001           
         H13       1.0000    0.36010   0.19070   0.82000   Biso      1.000     H          0.142675  
         H14       1.0000    0.88780   0.84240   0.28400   Biso      1.000     H          0.129018  
         H15       1.0000    0.26510   0.07100   0.38360   Biso      1.000     H          0.117846  
         H16       1.0000    0.34500   0.00680   0.38510   Biso      1.000     H          0.12080999999999999           
         H17       1.0000    0.42090   0.17950   0.27550   Biso      1.000     H          0.042506  
         H18       1.0000    0.85620   0.03290   0.40610   Biso      1.000     H          0.124929  
         H19       1.0000    0.83740   0.91080   0.51440   Biso      1.000     H          0.13048900000000002           
         H20       1.0000    0.80970   0.05230   0.50890   Biso      1.000     H          0.14269600000000002           
         H21       1.0000    0.72450   0.66010   0.57560   Biso      1.000     H          0.139999  
         H22       1.0000    0.67460   0.67630   0.49150   Biso      1.000     H          0.128803  
         H23       1.0000    0.86390   0.61040   0.89070   Biso      1.000     H          0.11432300000000001           
         H24       1.0000    0.07910   0.67950   0.77550   Biso      1.000     H          0.042506  
         H25       1.0000    0.65500   0.99320   0.88510   Biso      1.000     H          0.12080999999999999           
         H26       1.0000    0.84500   0.49320   0.38510   Biso      1.000     H          0.12080999999999999           
         H27       1.0000    0.73490   0.92900   0.88360   Biso      1.000     H          0.117846  
         H28       1.0000    0.92090   0.32050   0.27550   Biso      1.000     H          0.042506  
         H29       1.0000    0.35620   0.46710   0.40610   Biso      1.000     H          0.124928  
         H30       1.0000    0.33740   0.58920   0.51440   Biso      1.000     H          0.13048900000000002           
         H31       1.0000    0.30970   0.44770   0.50890   Biso      1.000     H          0.14269600000000002           
         H32       1.0000    0.17460   0.82370   0.49150   Biso      1.000     H          0.128803  
         H33       1.0000    0.20300   0.69150   0.54700   Biso      1.000     H          0.128351  
         H34       1.0000    0.22450   0.83990   0.57560   Biso      1.000     H          0.14      
         H35       1.0000    0.38780   0.65760   0.28400   Biso      1.000     H          0.129018  
         H36       1.0000    0.36390   0.88960   0.89070   Biso      1.000     H          0.11432300000000001           
         H37       1.0000    0.28370   0.82880   0.90040   Biso      1.000     H          0.119197  
         H38       1.0000    0.13990   0.69070   0.32000   Biso      1.000     H          0.142675  
         H39       1.0000    0.23490   0.57100   0.88360   Biso      1.000     H          0.117846  
         H40       1.0000    0.15500   0.50680   0.88510   Biso      1.000     H          0.12080999999999999           
         H41       1.0000    0.76510   0.42900   0.38360   Biso      1.000     H          0.117846  
         H42       1.0000    0.86010   0.30930   0.82000   Biso      1.000     H          0.142675  
         H43       1.0000    0.57910   0.82050   0.77550   Biso      1.000     H          0.042506  
         H44       1.0000    0.63610   0.11040   0.39070   Biso      1.000     H          0.114324  
         H45       1.0000    0.64380   0.53290   0.90610   Biso      1.000     H          0.124928  
         H46       1.0000    0.66260   0.41080   0.01440   Biso      1.000     H          0.13048900000000002           
         H47       1.0000    0.71630   0.17120   0.40040   Biso      1.000     H          0.11919600000000001           
         H48       1.0000    0.82540   0.17630   0.99150   Biso      1.000     H          0.128803  
         H49       1.0000    0.79700   0.30850   0.04700   Biso      1.000     H          0.128351  
         H50       1.0000    0.77550   0.16010   0.07560   Biso      1.000     H          0.14      
         H51       1.0000    0.69030   0.55230   0.00890   Biso      1.000     H          0.14269600000000002           
         H52       1.0000    0.61220   0.34240   0.78400   Biso      1.000     H          0.129019  
         O1        1.0000    0.19929   0.06200   0.81620   Biso      1.000     O          -0.15945399999999998          
         O2        1.0000    0.07167   0.47830   0.99970   Biso      1.000     O          -0.6984739999999999           
         O3        1.0000    0.06324   0.61180   0.21610   Biso      1.000     O          -0.683844           
         O4        1.0000    0.45157   0.88550   0.96550   Biso      1.000     O          -0.655787           
         O5        1.0000    0.45926   0.79630   0.21220   Biso      1.000     O          -0.7074090000000001           
         O6        1.0000    0.22844   0.77740   0.35070   Biso      1.000     O          -0.161694           
         O7        1.0000    0.30071   0.56200   0.31620   Biso      1.000     O          -0.15945299999999998          
         O8        1.0000    0.97769   0.41200   0.21160   Biso      1.000     O          -0.70709  
         O9        1.0000    0.92674   0.30570   0.05100   Biso      1.000     O          -0.565667           
         O10       1.0000    0.42674   0.19430   0.05100   Biso      1.000     O          -0.565667           
         O11       1.0000    0.47769   0.08800   0.21160   Biso      1.000     O          -0.70709  
         O12       1.0000    0.80071   0.93800   0.31620   Biso      1.000     O          -0.15945399999999998          
         O13       1.0000    0.72844   0.72260   0.35070   Biso      1.000     O          -0.161694           
         O14       1.0000    0.95926   0.70370   0.21220   Biso      1.000     O          -0.7074090000000001           
         O15       1.0000    0.95157   0.61450   0.96550   Biso      1.000     O          -0.655787           
         O16       1.0000    0.56324   0.88820   0.21610   Biso      1.000     O          -0.683844           
         O17       1.0000    0.57167   0.02170   0.99970   Biso      1.000     O          -0.6984739999999999           
         O18       1.0000    0.07326   0.69430   0.55100   Biso      1.000     O          -0.565667           
         O19       1.0000    0.42833   0.97830   0.49970   Biso      1.000     O          -0.6984739999999999           
         O20       1.0000    0.43676   0.11180   0.71610   Biso      1.000     O          -0.683844           
         O21       1.0000    0.04843   0.38550   0.46550   Biso      1.000     O          -0.655786           
         O22       1.0000    0.92833   0.52170   0.49970   Biso      1.000     O          -0.6984739999999999           
         O23       1.0000    0.93676   0.38820   0.71610   Biso      1.000     O          -0.683844           
         O24       1.0000    0.54843   0.11450   0.46550   Biso      1.000     O          -0.655786           
         O25       1.0000    0.54074   0.20370   0.71220   Biso      1.000     O          -0.7074090000000001           
         O26       1.0000    0.77156   0.22260   0.85070   Biso      1.000     O          -0.161694           
         O27       1.0000    0.69929   0.43800   0.81620   Biso      1.000     O          -0.15945399999999998          
         O28       1.0000    0.02231   0.58800   0.71160   Biso      1.000     O          -0.70709  
         O29       1.0000    0.04074   0.29630   0.71220   Biso      1.000     O          -0.7074090000000001           
         O30       1.0000    0.52231   0.91200   0.71160   Biso      1.000     O          -0.70709  
         O31       1.0000    0.27156   0.27740   0.85070   Biso      1.000     O          -0.161695           
         O32       1.0000    0.57326   0.80570   0.55100   Biso      1.000     O          -0.565667 