
##########################################################################
#               Crystallographic Information Format file
#               Produced by PyCifRW module
#
#  This is a CIF file.  CIF has been adopted by the International
#  Union of Crystallography as the standard for data archiving and
#  transmission.
#
#  For information on this file format, follow the CIF links at
#  http://www.iucr.org
##########################################################################

data_image0

_cell_length_a                          10.8609
_cell_length_b                          14.3088
_cell_length_c                          17.0198
_cell_angle_alpha                       90
_cell_angle_beta                        105.94
_cell_angle_gamma                       90
_symmetry_space_group_name_H-M          'P 1'
_symmetry_int_tables_number             1
loop_
  _symmetry_equiv_pos_as_xyz
         'x, y, z' 
loop_
  _atom_site_label
  _atom_site_occupancy
  _atom_site_fract_x
  _atom_site_fract_y
  _atom_site_fract_z
  _atom_site_thermal_displace_type
  _atom_site_B_iso_or_equiv
  _atom_site_type_symbol
  _atom_site_charge
         C1        1.0000    0.27150   0.69895   0.85329   Biso      1.000     C          0.6016819999999999  
         C2        1.0000    0.06674   0.40206   0.25110   Biso      1.000     C          0.10765799999999999           
         C3        1.0000    0.11467   0.32962   0.30519   Biso      1.000     C          -0.150252           
         C4        1.0000    0.22722   0.28559   0.30126   Biso      1.000     C          0.037114  
         C5        1.0000    0.29028   0.31799   0.24561   Biso      1.000     C          -0.149015           
         C6        1.0000    0.23634   0.39199   0.19505   Biso      1.000     C          0.094645  
         C7        1.0000    0.69817   0.06178   0.36162   Biso      1.000     C          0.608516  
         C8        1.0000    0.30183   0.93822   0.63838   Biso      1.000     C          0.608516  
         C9        1.0000    0.05593   0.89267   0.74177   Biso      1.000     C          0.10965699999999999           
         C10       1.0000    0.10280   0.81907   0.79494   Biso      1.000     C          -0.155177           
         C11       1.0000    0.22200   0.78161   0.79733   Biso      1.000     C          0.036242  
         C12       1.0000    0.29151   0.82060   0.74822   Biso      1.000     C          -0.151658           
         C13       1.0000    0.23676   0.89413   0.69703   Biso      1.000     C          0.09792000000000001           
         C14       1.0000    0.77654   0.29626   0.85703   Biso      1.000     C          0.596308  
         C15       1.0000    0.79950   0.06561   0.63444   Biso      1.000     C          0.610279  
         C16       1.0000    0.56674   0.09794   0.75110   Biso      1.000     C          0.10765799999999999           
         C17       1.0000    0.61467   0.17038   0.80519   Biso      1.000     C          -0.150252           
         C18       1.0000    0.72722   0.21441   0.80126   Biso      1.000     C          0.037114  
         C19       1.0000    0.29950   0.43439   0.13444   Biso      1.000     C          0.610279  
         C20       1.0000    0.79028   0.18201   0.74561   Biso      1.000     C          -0.149015           
         C21       1.0000    0.27654   0.20374   0.35703   Biso      1.000     C          0.596308  
         C22       1.0000    0.79151   0.67940   0.24822   Biso      1.000     C          -0.151658           
         C23       1.0000    0.94407   0.10733   0.25823   Biso      1.000     C          0.10965699999999999           
         C24       1.0000    0.89720   0.18093   0.20506   Biso      1.000     C          -0.155177           
         C25       1.0000    0.77800   0.21839   0.20267   Biso      1.000     C          0.036243  
         C26       1.0000    0.70849   0.17940   0.25178   Biso      1.000     C          -0.151658           
         C27       1.0000    0.76324   0.10587   0.30297   Biso      1.000     C          0.09792000000000001           
         C28       1.0000    0.22346   0.70374   0.14297   Biso      1.000     C          0.596308  
         C29       1.0000    0.20050   0.93439   0.36556   Biso      1.000     C          0.610279  
         C30       1.0000    0.43326   0.90206   0.24890   Biso      1.000     C          0.10765799999999999           
         C31       1.0000    0.38533   0.82962   0.19481   Biso      1.000     C          -0.150252           
         C32       1.0000    0.27278   0.78559   0.19874   Biso      1.000     C          0.037114  
         C33       1.0000    0.20972   0.81799   0.25439   Biso      1.000     C          -0.149015           
         C34       1.0000    0.26366   0.89199   0.30495   Biso      1.000     C          0.094645  
         C35       1.0000    0.77150   0.80105   0.35329   Biso      1.000     C          0.6016819999999999  
         C36       1.0000    0.80183   0.56178   0.13838   Biso      1.000     C          0.608516  
         C37       1.0000    0.55593   0.60733   0.24177   Biso      1.000     C          0.10965699999999999           
         C38       1.0000    0.60280   0.68093   0.29494   Biso      1.000     C          -0.155177           
         C39       1.0000    0.72200   0.71839   0.29733   Biso      1.000     C          0.036242  
         C40       1.0000    0.73676   0.60587   0.19703   Biso      1.000     C          0.09792000000000001           
         C41       1.0000    0.73634   0.10801   0.69505   Biso      1.000     C          0.094645  
         C42       1.0000    0.72850   0.30105   0.14671   Biso      1.000     C          0.6016819999999999  
         C43       1.0000    0.88533   0.67038   0.69481   Biso      1.000     C          -0.150253           
         C44       1.0000    0.44407   0.39267   0.75823   Biso      1.000     C          0.10965699999999999           
         C45       1.0000    0.70050   0.56561   0.86556   Biso      1.000     C          0.610279  
         C46       1.0000    0.20849   0.32060   0.75178   Biso      1.000     C          -0.151658           
         C47       1.0000    0.26324   0.39413   0.80297   Biso      1.000     C          0.09792000000000001           
         C48       1.0000    0.72346   0.79626   0.64297   Biso      1.000     C          0.596308  
         C49       1.0000    0.93326   0.59794   0.74890   Biso      1.000     C          0.10765899999999999           
         C50       1.0000    0.39720   0.31907   0.70506   Biso      1.000     C          -0.155177           
         C51       1.0000    0.77278   0.71441   0.69874   Biso      1.000     C          0.037114  
         C52       1.0000    0.19817   0.43822   0.86162   Biso      1.000     C          0.608516  
         C53       1.0000    0.70972   0.68201   0.75439   Biso      1.000     C          -0.149015           
         C54       1.0000    0.22850   0.19895   0.64671   Biso      1.000     C          0.6016819999999999  
         C55       1.0000    0.76366   0.60801   0.80495   Biso      1.000     C          0.094645  
         C56       1.0000    0.27800   0.28161   0.70267   Biso      1.000     C          0.036243  
         H1        1.0000    0.50900   0.93290   0.24940   Biso      1.000     H          0.096592  
         H2        1.0000    0.47600   0.62580   0.03510   Biso      1.000     H          0.49505   
         H3        1.0000    0.52100   0.87220   0.46370   Biso      1.000     H          0.483067  
         H4        1.0000    0.63100   0.70910   0.75860   Biso      1.000     H          0.149862  
         H5        1.0000    0.87500   0.70200   0.24840   Biso      1.000     H          0.150536  
         H6        1.0000    0.36900   0.29090   0.24140   Biso      1.000     H          0.149862  
         H7        1.0000    0.97900   0.37220   0.03630   Biso      1.000     H          0.483067  
         H8        1.0000    0.97600   0.87420   0.53510   Biso      1.000     H          0.49505   
         H9        1.0000    0.07200   0.31180   0.34270   Biso      1.000     H          0.136121  
         H10       1.0000    0.52400   0.37420   0.96490   Biso      1.000     H          0.49505   
         H11       1.0000    0.97500   0.91990   0.73690   Biso      1.000     H          0.09428099999999999           
         H12       1.0000    0.12500   0.29800   0.75160   Biso      1.000     H          0.150536  
         H13       1.0000    0.42800   0.81180   0.15730   Biso      1.000     H          0.136121  
         H14       1.0000    0.37500   0.79800   0.74840   Biso      1.000     H          0.150536  
         H15       1.0000    0.99100   0.43290   0.25060   Biso      1.000     H          0.096592  
         H16       1.0000    0.02500   0.08010   0.26310   Biso      1.000     H          0.09428099999999999           
         H17       1.0000    0.13100   0.79090   0.25860   Biso      1.000     H          0.149862  
         H18       1.0000    0.86900   0.20910   0.74140   Biso      1.000     H          0.149862  
         H19       1.0000    0.92800   0.68820   0.65730   Biso      1.000     H          0.136121  
         H20       1.0000    0.57200   0.18820   0.84270   Biso      1.000     H          0.136121  
         H21       1.0000    0.05800   0.79670   0.82940   Biso      1.000     H          0.1366    
         H22       1.0000    0.52500   0.41990   0.76310   Biso      1.000     H          0.09428099999999999           
         H23       1.0000    0.49100   0.06710   0.75060   Biso      1.000     H          0.096592  
         H24       1.0000    0.02400   0.12580   0.46490   Biso      1.000     H          0.49505   
         H25       1.0000    0.47900   0.12780   0.53630   Biso      1.000     H          0.483067  
         H26       1.0000    0.47500   0.58010   0.23690   Biso      1.000     H          0.09428099999999999           
         H27       1.0000    0.00900   0.56710   0.74940   Biso      1.000     H          0.096592  
         H28       1.0000    0.62500   0.20200   0.25160   Biso      1.000     H          0.150536  
         H29       1.0000    0.55800   0.70330   0.32940   Biso      1.000     H          0.1366    
         H30       1.0000    0.44200   0.29670   0.67060   Biso      1.000     H          0.1366    
         H31       1.0000    0.94200   0.20330   0.17060   Biso      1.000     H          0.1366    
         H32       1.0000    0.02100   0.62780   0.96370   Biso      1.000     H          0.483067  
         Mg1       1.0000    0.44962   0.02921   0.40853   Biso      1.000     Mg          1.349799  
         Mg2       1.0000    0.74975   0.90917   0.49951   Biso      1.000     Mg          1.412396  
         Mg3       1.0000    0.95195   0.96888   0.40990   Biso      1.000     Mg          1.349882  
         Mg4       1.0000    0.94962   0.47079   0.90853   Biso      1.000     Mg          1.349799  
         Mg5       1.0000    0.05038   0.52921   0.09147   Biso      1.000     Mg          1.349799  
         Mg6       1.0000    0.24975   0.59083   0.99951   Biso      1.000     Mg          1.412396  
         Mg7       1.0000    0.04805   0.03112   0.59010   Biso      1.000     Mg          1.349882  
         Mg8       1.0000    0.25025   0.09083   0.50049   Biso      1.000     Mg          1.412396  
         Mg9       1.0000    0.54805   0.46888   0.09010   Biso      1.000     Mg          1.349882  
         Mg10      1.0000    0.75025   0.40917   0.00049   Biso      1.000     Mg          1.412396  
         Mg11      1.0000    0.55038   0.97079   0.59147   Biso      1.000     Mg          1.349799  
         Mg12      1.0000    0.45195   0.53112   0.90990   Biso      1.000     Mg          1.349882  
         N1        1.0000    0.37992   0.42958   0.80728   Biso      1.000     N          -0.33024699999999996          
         N2        1.0000    0.37518   0.93259   0.30406   Biso      1.000     N          -0.327683           
         N3        1.0000    0.62008   0.57042   0.19272   Biso      1.000     N          -0.33024699999999996          
         N4        1.0000    0.87992   0.07042   0.30728   Biso      1.000     N          -0.33024699999999996          
         N5        1.0000    0.62482   0.06741   0.69594   Biso      1.000     N          -0.327683           
         N6        1.0000    0.12482   0.43259   0.19594   Biso      1.000     N          -0.327683           
         N7        1.0000    0.12008   0.92958   0.69272   Biso      1.000     N          -0.33024699999999996          
         N8        1.0000    0.87518   0.56741   0.80406   Biso      1.000     N          -0.327683           
         O1        1.0000    0.64560   0.85168   0.66160   Biso      1.000     O          -0.6230289999999999           
         O2        1.0000    0.58787   0.58620   0.86065   Biso      1.000     O          -0.585264           
         O3        1.0000    0.94690   0.92078   0.52175   Biso      1.000     O          -1.202856           
         O4        1.0000    0.77577   0.30889   0.08747   Biso      1.000     O          -0.642147           
         O5        1.0000    0.58323   0.07943   0.35434   Biso      1.000     O          -0.590212           
         O6        1.0000    0.76764   0.00964   0.41527   Biso      1.000     O          -0.694608           
         O7        1.0000    0.54918   0.91978   0.47864   Biso      1.000     O          -1.188372           
         O8        1.0000    0.76514   0.80290   0.58131   Biso      1.000     O          -0.643196           
         O9        1.0000    0.76937   0.50952   0.91653   Biso      1.000     O          -0.6982229999999999           
         O10       1.0000    0.64802   0.35447   0.16369   Biso      1.000     O          -0.622269           
         O11       1.0000    0.91213   0.08620   0.63935   Biso      1.000     O          -0.585264           
         O12       1.0000    0.14560   0.64832   0.16160   Biso      1.000     O          -0.6230289999999999           
         O13       1.0000    0.85440   0.35168   0.83840   Biso      1.000     O          -0.6230289999999999           
         O14       1.0000    0.73486   0.30290   0.91869   Biso      1.000     O          -0.643196           
         O15       1.0000    0.05310   0.07922   0.47825   Biso      1.000     O          -1.202856           
         O16       1.0000    0.45082   0.08022   0.52136   Biso      1.000     O          -1.188372           
         O17       1.0000    0.23236   0.99036   0.58473   Biso      1.000     O          -0.694608           
         O18       1.0000    0.41677   0.92057   0.64566   Biso      1.000     O          -0.590212           
         O19       1.0000    0.35198   0.64553   0.83631   Biso      1.000     O          -0.622269           
         O20       1.0000    0.22423   0.69111   0.91253   Biso      1.000     O          -0.642147           
         O21       1.0000    0.23063   0.49048   0.08347   Biso      1.000     O          -0.6982229999999999           
         O22       1.0000    0.41213   0.41380   0.13935   Biso      1.000     O          -0.585264           
         O23       1.0000    0.35440   0.14832   0.33840   Biso      1.000     O          -0.6230289999999999           
         O24       1.0000    0.23486   0.19710   0.41869   Biso      1.000     O          -0.643196           
         O25       1.0000    0.26514   0.69710   0.08131   Biso      1.000     O          -0.643196           
         O26       1.0000    0.27577   0.19111   0.58747   Biso      1.000     O          -0.642147           
         O27       1.0000    0.08323   0.42057   0.85434   Biso      1.000     O          -0.590212           
         O28       1.0000    0.26764   0.49036   0.91527   Biso      1.000     O          -0.694608           
         O29       1.0000    0.04918   0.58022   0.97864   Biso      1.000     O          -1.188372           
         O30       1.0000    0.55310   0.42078   0.97825   Biso      1.000     O          -1.202856           
         O31       1.0000    0.73063   0.00952   0.58347   Biso      1.000     O          -0.6982229999999999           
         O32       1.0000    0.73236   0.50964   0.08473   Biso      1.000     O          -0.694608           
         O33       1.0000    0.91677   0.57943   0.14566   Biso      1.000     O          -0.590212           
         O34       1.0000    0.85198   0.85447   0.33631   Biso      1.000     O          -0.622269           
         O35       1.0000    0.72423   0.80889   0.41253   Biso      1.000     O          -0.642147           
         O36       1.0000    0.44690   0.57922   0.02175   Biso      1.000     O          -1.202856           
         O37       1.0000    0.26937   0.99048   0.41653   Biso      1.000     O          -0.6982229999999999           
         O38       1.0000    0.08787   0.91380   0.36065   Biso      1.000     O          -0.585264           
         O39       1.0000    0.14802   0.14553   0.66369   Biso      1.000     O          -0.622269           
         O40       1.0000    0.95082   0.41978   0.02136   Biso      1.000     O          -1.188372 