
##########################################################################
#               Crystallographic Information Format file
#               Produced by PyCifRW module
#
#  This is a CIF file.  CIF has been adopted by the International
#  Union of Crystallography as the standard for data archiving and
#  transmission.
#
#  For information on this file format, follow the CIF links at
#  http://www.iucr.org
##########################################################################

data_image0

_cell_length_a                          18.1667
_cell_length_b                          12.5175
_cell_length_c                          11.021
_cell_angle_alpha                       90
_cell_angle_beta                        102.672
_cell_angle_gamma                       90
_symmetry_space_group_name_H-M          'P 1'
_symmetry_int_tables_number             1
loop_
  _symmetry_equiv_pos_as_xyz
         'x, y, z' 
loop_
  _atom_site_label
  _atom_site_occupancy
  _atom_site_fract_x
  _atom_site_fract_y
  _atom_site_fract_z
  _atom_site_thermal_displace_type
  _atom_site_B_iso_or_equiv
  _atom_site_type_symbol
  _atom_site_charge
         C1        1.0000    0.73857   0.40480   0.05240   Biso      1.000     C          0.111239  
         C2        1.0000    0.19927   0.70453   0.77820   Biso      1.000     C          0.045347000000000005          
         C3        1.0000    0.62693   0.43049   0.28760   Biso      1.000     C          0.605141  
         C4        1.0000    0.86331   0.21765   0.27750   Biso      1.000     C          0.606129  
         C5        1.0000    0.20239   0.66180   0.89540   Biso      1.000     C          -0.158891           
         C6        1.0000    0.36331   0.28235   0.77750   Biso      1.000     C          0.606129  
         C7        1.0000    0.12693   0.06951   0.78760   Biso      1.000     C          0.605141  
         C8        1.0000    0.23857   0.09520   0.55240   Biso      1.000     C          0.111239  
         C9        1.0000    0.26143   0.59520   0.94760   Biso      1.000     C          0.11124   
         C10       1.0000    0.29761   0.16180   0.60460   Biso      1.000     C          -0.158889           
         C11       1.0000    0.81125   0.89201   0.27390   Biso      1.000     C          0.112247  
         C12       1.0000    0.75487   0.82450   0.21620   Biso      1.000     C          -0.180541           
         C13       1.0000    0.31125   0.60799   0.77390   Biso      1.000     C          0.112247  
         C14       1.0000    0.69927   0.79547   0.27820   Biso      1.000     C          0.045349  
         C15       1.0000    0.70239   0.83820   0.39540   Biso      1.000     C          -0.158891           
         C16       1.0000    0.37307   0.56951   0.71240   Biso      1.000     C          0.605141  
         C17       1.0000    0.76143   0.90480   0.44760   Biso      1.000     C          0.11124   
         C18       1.0000    0.13669   0.21765   0.22250   Biso      1.000     C          0.606129  
         C19       1.0000    0.87307   0.93049   0.21240   Biso      1.000     C          0.605141  
         C20       1.0000    0.63669   0.71765   0.22250   Biso      1.000     C          0.606129  
         C21       1.0000    0.30073   0.20453   0.72180   Biso      1.000     C          0.045347000000000005          
         C22       1.0000    0.37307   0.43049   0.21240   Biso      1.000     C          0.605141  
         C23       1.0000    0.24513   0.17550   0.78380   Biso      1.000     C          -0.180543           
         C24       1.0000    0.18875   0.10799   0.72610   Biso      1.000     C          0.11225   
         C25       1.0000    0.26143   0.40480   0.44760   Biso      1.000     C          0.111239  
         C26       1.0000    0.13669   0.78235   0.72250   Biso      1.000     C          0.606129  
         C27       1.0000    0.31125   0.39201   0.27390   Biso      1.000     C          0.112247  
         C28       1.0000    0.25487   0.32450   0.21620   Biso      1.000     C          -0.180541           
         C29       1.0000    0.20239   0.33820   0.39540   Biso      1.000     C          -0.158889           
         C30       1.0000    0.79761   0.33820   0.10460   Biso      1.000     C          -0.158889           
         C31       1.0000    0.19927   0.29547   0.27820   Biso      1.000     C          0.045348  
         C32       1.0000    0.23857   0.90480   0.05240   Biso      1.000     C          0.111239  
         C33       1.0000    0.18875   0.89201   0.22610   Biso      1.000     C          0.112247  
         C34       1.0000    0.24513   0.82450   0.28380   Biso      1.000     C          -0.180541           
         C35       1.0000    0.76143   0.09520   0.94760   Biso      1.000     C          0.111239  
         C36       1.0000    0.30073   0.79547   0.22180   Biso      1.000     C          0.045348  
         C37       1.0000    0.29761   0.83820   0.10460   Biso      1.000     C          -0.158889           
         C38       1.0000    0.62693   0.56951   0.78760   Biso      1.000     C          0.605141  
         C39       1.0000    0.80073   0.29547   0.22180   Biso      1.000     C          0.045347000000000005          
         C40       1.0000    0.70239   0.16180   0.89540   Biso      1.000     C          -0.158889           
         C41       1.0000    0.12693   0.93049   0.28760   Biso      1.000     C          0.605141  
         C42       1.0000    0.36331   0.71765   0.27750   Biso      1.000     C          0.606129  
         C43       1.0000    0.73857   0.59520   0.55240   Biso      1.000     C          0.111239  
         C44       1.0000    0.69927   0.20453   0.77820   Biso      1.000     C          0.045347000000000005          
         C45       1.0000    0.79761   0.66180   0.60460   Biso      1.000     C          -0.158889           
         C46       1.0000    0.80073   0.70453   0.72180   Biso      1.000     C          0.045347000000000005          
         C47       1.0000    0.63669   0.28235   0.72250   Biso      1.000     C          0.606129  
         C48       1.0000    0.74513   0.67550   0.78380   Biso      1.000     C          -0.180543           
         C49       1.0000    0.68875   0.60799   0.72610   Biso      1.000     C          0.11225   
         C50       1.0000    0.75487   0.17550   0.71620   Biso      1.000     C          -0.180543           
         C51       1.0000    0.81125   0.10799   0.77390   Biso      1.000     C          0.11225   
         C52       1.0000    0.68875   0.39201   0.22610   Biso      1.000     C          0.112247  
         C53       1.0000    0.74513   0.32450   0.28380   Biso      1.000     C          -0.180539           
         C54       1.0000    0.25487   0.67550   0.71620   Biso      1.000     C          -0.180539           
         C55       1.0000    0.86331   0.78235   0.77750   Biso      1.000     C          0.606129  
         C56       1.0000    0.87307   0.06951   0.71240   Biso      1.000     C          0.605141  
         H1        1.0000    0.16650   0.32100   0.43900   Biso      1.000     H          0.134524  
         H2        1.0000    0.26780   0.43200   0.52900   Biso      1.000     H          0.091555  
         H3        1.0000    0.25390   0.69800   0.64500   Biso      1.000     H          0.158242  
         H4        1.0000    0.66650   0.17900   0.93900   Biso      1.000     H          0.134524  
         H5        1.0000    0.26780   0.56800   0.02900   Biso      1.000     H          0.091555  
         H6        1.0000    0.75390   0.19800   0.64500   Biso      1.000     H          0.158242  
         H7        1.0000    0.16650   0.67900   0.93900   Biso      1.000     H          0.134524  
         H8        1.0000    0.03790   0.85100   0.97200   Biso      1.000     H          0.436909  
         H9        1.0000    0.76780   0.06800   0.02900   Biso      1.000     H          0.091555  
         H10       1.0000    0.75390   0.80200   0.14500   Biso      1.000     H          0.158242  
         H11       1.0000    0.53790   0.35100   0.97200   Biso      1.000     H          0.436909  
         H12       1.0000    0.53790   0.64900   0.47200   Biso      1.000     H          0.436909  
         H13       1.0000    0.73220   0.56800   0.47100   Biso      1.000     H          0.091555  
         H14       1.0000    0.96210   0.14900   0.02800   Biso      1.000     H          0.436909  
         H15       1.0000    0.24610   0.80200   0.35500   Biso      1.000     H          0.158242  
         H16       1.0000    0.33350   0.82100   0.06100   Biso      1.000     H          0.134524  
         H17       1.0000    0.23220   0.93200   0.97100   Biso      1.000     H          0.091555  
         H18       1.0000    0.83350   0.67900   0.56100   Biso      1.000     H          0.134524  
         H19       1.0000    0.74610   0.69800   0.85500   Biso      1.000     H          0.158242  
         H20       1.0000    0.46210   0.35100   0.52800   Biso      1.000     H          0.436909  
         H21       1.0000    0.46210   0.64900   0.02800   Biso      1.000     H          0.436909  
         H22       1.0000    0.25390   0.30200   0.14500   Biso      1.000     H          0.158242  
         H23       1.0000    0.74610   0.30200   0.35500   Biso      1.000     H          0.158242  
         H24       1.0000    0.73220   0.43200   0.97100   Biso      1.000     H          0.091555  
         H25       1.0000    0.23220   0.06800   0.47100   Biso      1.000     H          0.091555  
         H26       1.0000    0.33350   0.17900   0.56100   Biso      1.000     H          0.134524  
         H27       1.0000    0.03790   0.14900   0.47200   Biso      1.000     H          0.436909  
         H28       1.0000    0.66650   0.82100   0.43900   Biso      1.000     H          0.134524  
         H29       1.0000    0.76780   0.93200   0.52900   Biso      1.000     H          0.091555  
         H30       1.0000    0.24610   0.19800   0.85500   Biso      1.000     H          0.158242  
         H31       1.0000    0.96210   0.85100   0.52800   Biso      1.000     H          0.436909  
         H32       1.0000    0.83350   0.32100   0.06100   Biso      1.000     H          0.134524  
         Mg1       1.0000    0.58427   0.46368   0.54019   Biso      1.000     Mg          1.347969  
         Mg2       1.0000    0.08427   0.96368   0.54019   Biso      1.000     Mg          1.347969  
         Mg3       1.0000    0.00000   0.09915   0.25000   Biso      1.000     Mg          1.396754  
         Mg4       1.0000    0.50000   0.59915   0.25000   Biso      1.000     Mg          1.396754  
         Mg5       1.0000    0.08427   0.03632   0.04019   Biso      1.000     Mg          1.347969  
         Mg6       1.0000    0.50000   0.40085   0.75000   Biso      1.000     Mg          1.396754  
         Mg7       1.0000    0.58427   0.53632   0.04019   Biso      1.000     Mg          1.347969  
         Mg8       1.0000    0.91573   0.03632   0.45981   Biso      1.000     Mg          1.347969  
         Mg9       1.0000    0.91573   0.96368   0.95981   Biso      1.000     Mg          1.347969  
         Mg10      1.0000    0.41573   0.46368   0.95981   Biso      1.000     Mg          1.347969  
         Mg11      1.0000    0.41573   0.53632   0.45981   Biso      1.000     Mg          1.347969  
         Mg12      1.0000    0.00000   0.90085   0.75000   Biso      1.000     Mg          1.396754  
         N1        1.0000    0.18411   0.06813   0.61037   Biso      1.000     N          -0.33511599999999997          
         N2        1.0000    0.81589   0.93187   0.38963   Biso      1.000     N          -0.33511599999999997          
         N3        1.0000    0.68411   0.43187   0.11037   Biso      1.000     N          -0.33511599999999997          
         N4        1.0000    0.81589   0.06813   0.88963   Biso      1.000     N          -0.33511599999999997          
         N5        1.0000    0.31589   0.43187   0.38963   Biso      1.000     N          -0.33511599999999997          
         N6        1.0000    0.31589   0.56813   0.88963   Biso      1.000     N          -0.33511599999999997          
         N7        1.0000    0.68411   0.56813   0.61037   Biso      1.000     N          -0.33511599999999997          
         N8        1.0000    0.18411   0.93187   0.11037   Biso      1.000     N          -0.33511599999999997          
         O1        1.0000    0.57527   0.51632   0.71889   Biso      1.000     O          -0.687129           
         O2        1.0000    0.63210   0.59005   0.89936   Biso      1.000     O          -0.58596  
         O3        1.0000    0.85482   0.83397   0.87018   Biso      1.000     O          -0.6237699999999999           
         O4        1.0000    0.91692   0.78861   0.72404   Biso      1.000     O          -0.638872           
         O5        1.0000    0.47919   0.41160   0.55421   Biso      1.000     O          -1.137402           
         O6        1.0000    0.63210   0.40995   0.39936   Biso      1.000     O          -0.585961           
         O7        1.0000    0.91692   0.21139   0.22404   Biso      1.000     O          -0.638872           
         O8        1.0000    0.85482   0.16603   0.37018   Biso      1.000     O          -0.6237699999999999           
         O9        1.0000    0.57527   0.48368   0.21889   Biso      1.000     O          -0.687129           
         O10       1.0000    0.97919   0.08840   0.05421   Biso      1.000     O          -1.137402           
         O11       1.0000    0.41692   0.71139   0.22404   Biso      1.000     O          -0.638872           
         O12       1.0000    0.35482   0.66603   0.37018   Biso      1.000     O          -0.6237699999999999           
         O13       1.0000    0.13210   0.90995   0.39936   Biso      1.000     O          -0.585961           
         O14       1.0000    0.07527   0.98368   0.21889   Biso      1.000     O          -0.687129           
         O15       1.0000    0.47919   0.58840   0.05421   Biso      1.000     O          -1.137402           
         O16       1.0000    0.92473   0.98368   0.28111   Biso      1.000     O          -0.687129           
         O17       1.0000    0.14518   0.83397   0.62982   Biso      1.000     O          -0.6237699999999999           
         O18       1.0000    0.64518   0.66603   0.12982   Biso      1.000     O          -0.6237699999999999           
         O19       1.0000    0.08308   0.78861   0.77596   Biso      1.000     O          -0.638872           
         O20       1.0000    0.52081   0.41160   0.94579   Biso      1.000     O          -1.137402           
         O21       1.0000    0.42473   0.51632   0.78111   Biso      1.000     O          -0.687129           
         O22       1.0000    0.02081   0.91160   0.94579   Biso      1.000     O          -1.137402           
         O23       1.0000    0.58308   0.28861   0.77596   Biso      1.000     O          -0.638872           
         O24       1.0000    0.64518   0.33397   0.62982   Biso      1.000     O          -0.6237699999999999           
         O25       1.0000    0.86790   0.09005   0.60064   Biso      1.000     O          -0.58596  
         O26       1.0000    0.92473   0.01632   0.78111   Biso      1.000     O          -0.687129           
         O27       1.0000    0.52081   0.58840   0.44579   Biso      1.000     O          -1.137402           
         O28       1.0000    0.86790   0.90995   0.10064   Biso      1.000     O          -0.585961           
         O29       1.0000    0.08308   0.21139   0.27596   Biso      1.000     O          -0.638872           
         O30       1.0000    0.13210   0.09005   0.89936   Biso      1.000     O          -0.58596  
         O31       1.0000    0.35482   0.33397   0.87018   Biso      1.000     O          -0.6237699999999999           
         O32       1.0000    0.41692   0.28861   0.72404   Biso      1.000     O          -0.638872           
         O33       1.0000    0.97919   0.91160   0.55421   Biso      1.000     O          -1.137402           
         O34       1.0000    0.14518   0.16603   0.12982   Biso      1.000     O          -0.6237699999999999           
         O35       1.0000    0.36790   0.40995   0.10064   Biso      1.000     O          -0.585961           
         O36       1.0000    0.42473   0.48368   0.28111   Biso      1.000     O          -0.687129           
         O37       1.0000    0.36790   0.59005   0.60064   Biso      1.000     O          -0.585961           
         O38       1.0000    0.58308   0.71139   0.27596   Biso      1.000     O          -0.638872           
         O39       1.0000    0.07527   0.01632   0.71889   Biso      1.000     O          -0.687129           
         O40       1.0000    0.02081   0.08840   0.44579   Biso      1.000     O          -1.137402 