
##########################################################################
#               Crystallographic Information Format file
#               Produced by PyCifRW module
#
#  This is a CIF file.  CIF has been adopted by the International
#  Union of Crystallography as the standard for data archiving and
#  transmission.
#
#  For information on this file format, follow the CIF links at
#  http://www.iucr.org
##########################################################################

data_image0

_cell_length_a                          17.9958
_cell_length_b                          12.8531
_cell_length_c                          11.0394
_cell_angle_alpha                       90
_cell_angle_beta                        103.588
_cell_angle_gamma                       90
_symmetry_space_group_name_H-M          'P 1'
_symmetry_int_tables_number             1
loop_
  _symmetry_equiv_pos_as_xyz
         'x, y, z' 
loop_
  _atom_site_label
  _atom_site_occupancy
  _atom_site_fract_x
  _atom_site_fract_y
  _atom_site_fract_z
  _atom_site_thermal_displace_type
  _atom_site_B_iso_or_equiv
  _atom_site_type_symbol
  _atom_site_charge
         C1        1.0000    0.74715   0.32559   0.28757   Biso      1.000     C          -0.152097           
         C2        1.0000    0.36345   0.71628   0.27908   Biso      1.000     C          0.606342  
         C3        1.0000    0.87057   0.93374   0.20905   Biso      1.000     C          0.603801  
         C4        1.0000    0.76001   0.90442   0.44415   Biso      1.000     C          0.11544   
         C5        1.0000    0.30197   0.20464   0.72471   Biso      1.000     C          0.03308   
         C6        1.0000    0.29841   0.16327   0.60763   Biso      1.000     C          -0.153723           
         C7        1.0000    0.26001   0.59558   0.94415   Biso      1.000     C          0.11544   
         C8        1.0000    0.37057   0.56626   0.70905   Biso      1.000     C          0.603801  
         C9        1.0000    0.12943   0.06626   0.79095   Biso      1.000     C          0.603802  
         C10       1.0000    0.20159   0.66327   0.89237   Biso      1.000     C          -0.153722           
         C11       1.0000    0.69074   0.39449   0.22954   Biso      1.000     C          0.097041  
         C12       1.0000    0.19803   0.70464   0.77529   Biso      1.000     C          0.033081  
         C13       1.0000    0.86345   0.21628   0.27908   Biso      1.000     C          0.606342  
         C14       1.0000    0.70159   0.83673   0.39237   Biso      1.000     C          -0.153722           
         C15       1.0000    0.19074   0.10551   0.72954   Biso      1.000     C          0.097038  
         C16       1.0000    0.80197   0.29536   0.22471   Biso      1.000     C          0.033082  
         C17       1.0000    0.79841   0.33673   0.10763   Biso      1.000     C          -0.153724           
         C18       1.0000    0.62943   0.43374   0.29095   Biso      1.000     C          0.603801  
         C19       1.0000    0.73999   0.40442   0.05585   Biso      1.000     C          0.115443  
         C20       1.0000    0.23999   0.90442   0.05585   Biso      1.000     C          0.11544   
         C21       1.0000    0.12943   0.93374   0.29095   Biso      1.000     C          0.603802  
         C22       1.0000    0.25285   0.67441   0.71243   Biso      1.000     C          -0.152095           
         C23       1.0000    0.13655   0.78372   0.72092   Biso      1.000     C          0.606342  
         C24       1.0000    0.30926   0.60551   0.77046   Biso      1.000     C          0.097041  
         C25       1.0000    0.29841   0.83673   0.10763   Biso      1.000     C          -0.153722           
         C26       1.0000    0.30197   0.79536   0.22471   Biso      1.000     C          0.033081  
         C27       1.0000    0.19074   0.89449   0.22954   Biso      1.000     C          0.097038  
         C28       1.0000    0.23999   0.09558   0.55585   Biso      1.000     C          0.115443  
         C29       1.0000    0.69803   0.79536   0.27529   Biso      1.000     C          0.033081  
         C30       1.0000    0.24715   0.82559   0.28757   Biso      1.000     C          -0.152092           
         C31       1.0000    0.75285   0.82559   0.21243   Biso      1.000     C          -0.152095           
         C32       1.0000    0.36345   0.28372   0.77908   Biso      1.000     C          0.606342  
         C33       1.0000    0.73999   0.59558   0.55585   Biso      1.000     C          0.11544   
         C34       1.0000    0.62943   0.56626   0.79095   Biso      1.000     C          0.603802  
         C35       1.0000    0.76001   0.09558   0.94415   Biso      1.000     C          0.11544   
         C36       1.0000    0.87057   0.06626   0.70905   Biso      1.000     C          0.603801  
         C37       1.0000    0.30926   0.39449   0.27046   Biso      1.000     C          0.097039  
         C38       1.0000    0.13655   0.21628   0.22092   Biso      1.000     C          0.606342  
         C39       1.0000    0.25285   0.32559   0.21243   Biso      1.000     C          -0.152094           
         C40       1.0000    0.79841   0.66327   0.60763   Biso      1.000     C          -0.153722           
         C41       1.0000    0.19803   0.29536   0.27529   Biso      1.000     C          0.033082  
         C42       1.0000    0.69074   0.60551   0.72954   Biso      1.000     C          0.097038  
         C43       1.0000    0.80197   0.70464   0.72471   Biso      1.000     C          0.033081  
         C44       1.0000    0.37057   0.43374   0.20905   Biso      1.000     C          0.603802  
         C45       1.0000    0.20159   0.33673   0.39237   Biso      1.000     C          -0.153724           
         C46       1.0000    0.75285   0.17441   0.71243   Biso      1.000     C          -0.152097           
         C47       1.0000    0.70159   0.16327   0.89237   Biso      1.000     C          -0.153722           
         C48       1.0000    0.69803   0.20464   0.77529   Biso      1.000     C          0.033083  
         C49       1.0000    0.74715   0.67441   0.78757   Biso      1.000     C          -0.152092           
         C50       1.0000    0.86345   0.78372   0.77908   Biso      1.000     C          0.606342  
         C51       1.0000    0.63655   0.71628   0.22092   Biso      1.000     C          0.606342  
         C52       1.0000    0.24715   0.17441   0.78757   Biso      1.000     C          -0.152092           
         C53       1.0000    0.26001   0.40442   0.44415   Biso      1.000     C          0.115443  
         C54       1.0000    0.63655   0.28372   0.72092   Biso      1.000     C          0.606342  
         C55       1.0000    0.80926   0.89449   0.27046   Biso      1.000     C          0.097041  
         C56       1.0000    0.80926   0.10551   0.77046   Biso      1.000     C          0.097041  
         H1        1.0000    0.24610   0.79940   0.36800   Biso      1.000     H          0.150086  
         H2        1.0000    0.73590   0.56590   0.47400   Biso      1.000     H          0.091067  
         H3        1.0000    0.74610   0.70060   0.86800   Biso      1.000     H          0.150086  
         H4        1.0000    0.83540   0.68060   0.56400   Biso      1.000     H          0.133625  
         H5        1.0000    0.33540   0.18060   0.56400   Biso      1.000     H          0.133625  
         H6        1.0000    0.46280   0.36380   0.52600   Biso      1.000     H          0.492522  
         H7        1.0000    0.23590   0.93410   0.97400   Biso      1.000     H          0.091067  
         H8        1.0000    0.33540   0.81940   0.06400   Biso      1.000     H          0.133625  
         H9        1.0000    0.24610   0.20060   0.86800   Biso      1.000     H          0.150086  
         H10       1.0000    0.96280   0.86380   0.52600   Biso      1.000     H          0.492522  
         H11       1.0000    0.75390   0.79940   0.13200   Biso      1.000     H          0.150086  
         H12       1.0000    0.66460   0.18060   0.93600   Biso      1.000     H          0.133625  
         H13       1.0000    0.25390   0.29940   0.13200   Biso      1.000     H          0.150086  
         H14       1.0000    0.16460   0.31940   0.43600   Biso      1.000     H          0.133625  
         H15       1.0000    0.26410   0.43410   0.52600   Biso      1.000     H          0.091067  
         H16       1.0000    0.03720   0.13620   0.47400   Biso      1.000     H          0.492522  
         H17       1.0000    0.75390   0.20060   0.63200   Biso      1.000     H          0.150086  
         H18       1.0000    0.03720   0.86380   0.97400   Biso      1.000     H          0.492522  
         H19       1.0000    0.23590   0.06590   0.47400   Biso      1.000     H          0.091067  
         H20       1.0000    0.66460   0.81940   0.43600   Biso      1.000     H          0.133625  
         H21       1.0000    0.76410   0.06590   0.02600   Biso      1.000     H          0.091067  
         H22       1.0000    0.76410   0.93410   0.52600   Biso      1.000     H          0.091067  
         H23       1.0000    0.26410   0.56590   0.02600   Biso      1.000     H          0.091067  
         H24       1.0000    0.46280   0.63620   0.02600   Biso      1.000     H          0.492522  
         H25       1.0000    0.16460   0.68060   0.93600   Biso      1.000     H          0.133625  
         H26       1.0000    0.74610   0.29940   0.36800   Biso      1.000     H          0.150086  
         H27       1.0000    0.83540   0.31940   0.06400   Biso      1.000     H          0.133625  
         H28       1.0000    0.73590   0.43410   0.97400   Biso      1.000     H          0.091067  
         H29       1.0000    0.25390   0.70060   0.63200   Biso      1.000     H          0.150086  
         H30       1.0000    0.96280   0.13620   0.02600   Biso      1.000     H          0.492522  
         H31       1.0000    0.53720   0.36380   0.97400   Biso      1.000     H          0.492522  
         H32       1.0000    0.53720   0.63620   0.47400   Biso      1.000     H          0.492522  
         Mg1       1.0000    0.00000   0.09773   0.25000   Biso      1.000     Mg          1.408819  
         Mg2       1.0000    0.41464   0.46423   0.95809   Biso      1.000     Mg          1.355259  
         Mg3       1.0000    0.91464   0.96423   0.95809   Biso      1.000     Mg          1.355259  
         Mg4       1.0000    0.50000   0.59773   0.25000   Biso      1.000     Mg          1.408819  
         Mg5       1.0000    0.41464   0.53577   0.45809   Biso      1.000     Mg          1.355259  
         Mg6       1.0000    0.00000   0.90227   0.75000   Biso      1.000     Mg          1.408819  
         Mg7       1.0000    0.58536   0.53577   0.04191   Biso      1.000     Mg          1.355259  
         Mg8       1.0000    0.08536   0.03577   0.04191   Biso      1.000     Mg          1.355259  
         Mg9       1.0000    0.08536   0.96423   0.54191   Biso      1.000     Mg          1.355259  
         Mg10      1.0000    0.58536   0.46423   0.54191   Biso      1.000     Mg          1.355259  
         Mg11      1.0000    0.50000   0.40227   0.75000   Biso      1.000     Mg          1.408819  
         Mg12      1.0000    0.91464   0.03577   0.45809   Biso      1.000     Mg          1.355259  
         N1        1.0000    0.68614   0.43302   0.11422   Biso      1.000     N          -0.333408           
         N2        1.0000    0.31386   0.56698   0.88578   Biso      1.000     N          -0.333408           
         N3        1.0000    0.18614   0.93302   0.11422   Biso      1.000     N          -0.333407           
         N4        1.0000    0.31386   0.43302   0.38578   Biso      1.000     N          -0.333408           
         N5        1.0000    0.68614   0.56698   0.61422   Biso      1.000     N          -0.333407           
         N6        1.0000    0.18614   0.06698   0.61422   Biso      1.000     N          -0.333408           
         N7        1.0000    0.81386   0.93302   0.38578   Biso      1.000     N          -0.333408           
         N8        1.0000    0.81386   0.06698   0.88578   Biso      1.000     N          -0.333408           
         O1        1.0000    0.58303   0.29202   0.77519   Biso      1.000     O          -0.635064           
         O2        1.0000    0.86506   0.08616   0.59729   Biso      1.000     O          -0.586405           
         O3        1.0000    0.02131   0.91392   0.94628   Biso      1.000     O          -1.203754           
         O4        1.0000    0.64517   0.33480   0.62839   Biso      1.000     O          -0.63121  
         O5        1.0000    0.92330   0.01424   0.77891   Biso      1.000     O          -0.687018           
         O6        1.0000    0.02131   0.08608   0.44628   Biso      1.000     O          -1.203754           
         O7        1.0000    0.64517   0.66520   0.12839   Biso      1.000     O          -0.63121  
         O8        1.0000    0.58303   0.70798   0.27519   Biso      1.000     O          -0.635064           
         O9        1.0000    0.86506   0.91384   0.09729   Biso      1.000     O          -0.586405           
         O10       1.0000    0.42330   0.48576   0.27891   Biso      1.000     O          -0.687018           
         O11       1.0000    0.14517   0.16520   0.12839   Biso      1.000     O          -0.63121  
         O12       1.0000    0.08303   0.20798   0.27519   Biso      1.000     O          -0.635064           
         O13       1.0000    0.36506   0.41384   0.09729   Biso      1.000     O          -0.586405           
         O14       1.0000    0.52131   0.58608   0.44628   Biso      1.000     O          -1.203754           
         O15       1.0000    0.92330   0.98576   0.27891   Biso      1.000     O          -0.687018           
         O16       1.0000    0.47869   0.58608   0.05372   Biso      1.000     O          -1.203754           
         O17       1.0000    0.41697   0.29202   0.72481   Biso      1.000     O          -0.635064           
         O18       1.0000    0.91697   0.20798   0.22481   Biso      1.000     O          -0.635064           
         O19       1.0000    0.35483   0.33480   0.87161   Biso      1.000     O          -0.63121  
         O20       1.0000    0.07670   0.01424   0.72109   Biso      1.000     O          -0.687018           
         O21       1.0000    0.97869   0.91392   0.55372   Biso      1.000     O          -1.203754           
         O22       1.0000    0.57670   0.51424   0.72109   Biso      1.000     O          -0.687018           
         O23       1.0000    0.85483   0.83480   0.87161   Biso      1.000     O          -0.63121  
         O24       1.0000    0.91697   0.79202   0.72481   Biso      1.000     O          -0.635064           
         O25       1.0000    0.63494   0.58616   0.90271   Biso      1.000     O          -0.586405           
         O26       1.0000    0.07670   0.98576   0.22109   Biso      1.000     O          -0.687018           
         O27       1.0000    0.52131   0.41392   0.94628   Biso      1.000     O          -1.203754           
         O28       1.0000    0.63494   0.41384   0.40271   Biso      1.000     O          -0.586405           
         O29       1.0000    0.35483   0.66520   0.37161   Biso      1.000     O          -0.63121  
         O30       1.0000    0.08303   0.79202   0.77519   Biso      1.000     O          -0.635064           
         O31       1.0000    0.14517   0.83480   0.62839   Biso      1.000     O          -0.63121  
         O32       1.0000    0.42330   0.51424   0.77891   Biso      1.000     O          -0.687018           
         O33       1.0000    0.41697   0.70798   0.22481   Biso      1.000     O          -0.635064           
         O34       1.0000    0.13494   0.91384   0.40271   Biso      1.000     O          -0.586405           
         O35       1.0000    0.97869   0.08608   0.05372   Biso      1.000     O          -1.203754           
         O36       1.0000    0.13494   0.08616   0.90271   Biso      1.000     O          -0.586405           
         O37       1.0000    0.57670   0.48576   0.22109   Biso      1.000     O          -0.687018           
         O38       1.0000    0.85483   0.16520   0.37161   Biso      1.000     O          -0.63121  
         O39       1.0000    0.36506   0.58616   0.59729   Biso      1.000     O          -0.586405           
         O40       1.0000    0.47869   0.41392   0.55372   Biso      1.000     O          -1.203754 