
##########################################################################
#               Crystallographic Information Format file
#               Produced by PyCifRW module
#
#  This is a CIF file.  CIF has been adopted by the International
#  Union of Crystallography as the standard for data archiving and
#  transmission.
#
#  For information on this file format, follow the CIF links at
#  http://www.iucr.org
##########################################################################

data_image0

_cell_length_a                          18.204
_cell_length_b                          12.3884
_cell_length_c                          11.0014
_cell_angle_alpha                       90
_cell_angle_beta                        102.366
_cell_angle_gamma                       90
_symmetry_space_group_name_H-M          'P 1'
_symmetry_int_tables_number             1
loop_
  _symmetry_equiv_pos_as_xyz
         'x, y, z' 
loop_
  _atom_site_label
  _atom_site_occupancy
  _atom_site_fract_x
  _atom_site_fract_y
  _atom_site_fract_z
  _atom_site_thermal_displace_type
  _atom_site_B_iso_or_equiv
  _atom_site_type_symbol
  _atom_site_charge
         C1        1.0000    0.26200   0.09520   0.44740   Biso      1.000     C          0.087808  
         C2        1.0000    0.80040   0.79880   0.72230   Biso      1.000     C          0.037658  
         C3        1.0000    0.37420   0.06820   0.21240   Biso      1.000     C          0.612053  
         C4        1.0000    0.13630   0.27810   0.21940   Biso      1.000     C          0.601472  
         C5        1.0000    0.79760   0.84000   0.60630   Biso      1.000     C          -0.133423           
         C6        1.0000    0.63630   0.22190   0.71940   Biso      1.000     C          0.601472  
         C7        1.0000    0.87420   0.43180   0.71240   Biso      1.000     C          0.612053  
         C8        1.0000    0.76200   0.40480   0.94740   Biso      1.000     C          0.087808  
         C9        1.0000    0.73800   0.90480   0.55260   Biso      1.000     C          0.087811  
         C10       1.0000    0.70240   0.34000   0.89370   Biso      1.000     C          -0.133426           
         C11       1.0000    0.18810   0.60700   0.22570   Biso      1.000     C          0.09801599999999999           
         C12       1.0000    0.24510   0.67450   0.28430   Biso      1.000     C          -0.163933           
         C13       1.0000    0.68810   0.89300   0.72570   Biso      1.000     C          0.09801499999999999           
         C14       1.0000    0.30040   0.70120   0.22230   Biso      1.000     C          0.037661  
         C15       1.0000    0.29760   0.66000   0.10630   Biso      1.000     C          -0.133424           
         C16       1.0000    0.62580   0.93180   0.78760   Biso      1.000     C          0.612053  
         C17       1.0000    0.23800   0.59520   0.05260   Biso      1.000     C          0.087811  
         C18       1.0000    0.86370   0.27810   0.28060   Biso      1.000     C          0.601472  
         C19       1.0000    0.12580   0.56820   0.28760   Biso      1.000     C          0.612053  
         C20       1.0000    0.36370   0.77810   0.28060   Biso      1.000     C          0.6014729999999999  
         C21       1.0000    0.69960   0.29880   0.77770   Biso      1.000     C          0.037663999999999996          
         C22       1.0000    0.62580   0.06820   0.28760   Biso      1.000     C          0.612053  
         C23       1.0000    0.75490   0.32550   0.71570   Biso      1.000     C          -0.163933           
         C24       1.0000    0.81190   0.39300   0.77430   Biso      1.000     C          0.098018  
         C25       1.0000    0.73800   0.09520   0.05260   Biso      1.000     C          0.087808  
         C26       1.0000    0.86370   0.72190   0.78060   Biso      1.000     C          0.6014729999999999  
         C27       1.0000    0.68810   0.10700   0.22570   Biso      1.000     C          0.09801599999999999           
         C28       1.0000    0.74510   0.17450   0.28430   Biso      1.000     C          -0.163934           
         C29       1.0000    0.79760   0.16000   0.10630   Biso      1.000     C          -0.133426           
         C30       1.0000    0.20240   0.16000   0.39370   Biso      1.000     C          -0.133426           
         C31       1.0000    0.80040   0.20120   0.22230   Biso      1.000     C          0.037667  
         C32       1.0000    0.76200   0.59520   0.44740   Biso      1.000     C          0.08780700000000001           
         C33       1.0000    0.81190   0.60700   0.27430   Biso      1.000     C          0.09801599999999999           
         C34       1.0000    0.75490   0.67450   0.21570   Biso      1.000     C          -0.163933           
         C35       1.0000    0.23800   0.40480   0.55260   Biso      1.000     C          0.087808  
         C36       1.0000    0.69960   0.70120   0.27770   Biso      1.000     C          0.037661  
         C37       1.0000    0.70240   0.66000   0.39370   Biso      1.000     C          -0.13342  
         C38       1.0000    0.37420   0.93180   0.71240   Biso      1.000     C          0.612053  
         C39       1.0000    0.19960   0.20120   0.27770   Biso      1.000     C          0.037663999999999996          
         C40       1.0000    0.29760   0.34000   0.60630   Biso      1.000     C          -0.133426           
         C41       1.0000    0.87420   0.56820   0.21240   Biso      1.000     C          0.612053  
         C42       1.0000    0.63630   0.77810   0.21940   Biso      1.000     C          0.6014729999999999  
         C43       1.0000    0.26200   0.90480   0.94740   Biso      1.000     C          0.087808  
         C44       1.0000    0.30040   0.29880   0.72230   Biso      1.000     C          0.037663999999999996          
         C45       1.0000    0.20240   0.84000   0.89370   Biso      1.000     C          -0.133426           
         C46       1.0000    0.19960   0.79880   0.77770   Biso      1.000     C          0.037663999999999996          
         C47       1.0000    0.36370   0.22190   0.78060   Biso      1.000     C          0.601472  
         C48       1.0000    0.25490   0.82550   0.71570   Biso      1.000     C          -0.163933           
         C49       1.0000    0.31190   0.89300   0.77430   Biso      1.000     C          0.098018  
         C50       1.0000    0.24510   0.32550   0.78430   Biso      1.000     C          -0.163933           
         C51       1.0000    0.18810   0.39300   0.72570   Biso      1.000     C          0.098018  
         C52       1.0000    0.31190   0.10700   0.27430   Biso      1.000     C          0.09801499999999999           
         C53       1.0000    0.25490   0.17450   0.21570   Biso      1.000     C          -0.16393  
         C54       1.0000    0.74510   0.82550   0.78430   Biso      1.000     C          -0.16393  
         C55       1.0000    0.13630   0.72190   0.71940   Biso      1.000     C          0.601472  
         C56       1.0000    0.12580   0.43180   0.78760   Biso      1.000     C          0.612053  
         H1        1.0000    0.83900   0.17100   0.06000   Biso      1.000     H          0.12954300000000002           
         H2        1.0000    0.73500   0.07100   0.97700   Biso      1.000     H          0.09649400000000001           
         H3        1.0000    0.74200   0.79800   0.85700   Biso      1.000     H          0.15293900000000002           
         H4        1.0000    0.33900   0.32900   0.56000   Biso      1.000     H          0.12954300000000002           
         H5        1.0000    0.73500   0.92900   0.47700   Biso      1.000     H          0.09649400000000001           
         H6        1.0000    0.24200   0.29800   0.85700   Biso      1.000     H          0.15294000000000002           
         H7        1.0000    0.83900   0.82900   0.56000   Biso      1.000     H          0.12954300000000002           
         H8        1.0000    0.96500   0.63400   0.52000   Biso      1.000     H          0.547096  
         H9        1.0000    0.23500   0.42900   0.47700   Biso      1.000     H          0.09649400000000001           
         H10       1.0000    0.24200   0.70200   0.35700   Biso      1.000     H          0.15294000000000002           
         H11       1.0000    0.46500   0.13400   0.52000   Biso      1.000     H          0.547096  
         H12       1.0000    0.46500   0.86600   0.02000   Biso      1.000     H          0.547095  
         H13       1.0000    0.26500   0.92900   0.02300   Biso      1.000     H          0.09649400000000001           
         H14       1.0000    0.03500   0.36600   0.48000   Biso      1.000     H          0.547095  
         H15       1.0000    0.75800   0.70200   0.14300   Biso      1.000     H          0.15294000000000002           
         H16       1.0000    0.66100   0.67100   0.44000   Biso      1.000     H          0.12954300000000002           
         H17       1.0000    0.76500   0.57100   0.52300   Biso      1.000     H          0.09649400000000001           
         H18       1.0000    0.16100   0.82900   0.94000   Biso      1.000     H          0.12954300000000002           
         H19       1.0000    0.25800   0.79800   0.64300   Biso      1.000     H          0.15294000000000002           
         H20       1.0000    0.53500   0.13400   0.98000   Biso      1.000     H          0.547095  
         H21       1.0000    0.53500   0.86600   0.48000   Biso      1.000     H          0.547096  
         H22       1.0000    0.74200   0.20200   0.35700   Biso      1.000     H          0.15294000000000002           
         H23       1.0000    0.25800   0.20200   0.14300   Biso      1.000     H          0.15293900000000002           
         H24       1.0000    0.26500   0.07100   0.52300   Biso      1.000     H          0.09649400000000001           
         H25       1.0000    0.76500   0.42900   0.02300   Biso      1.000     H          0.09649400000000001           
         H26       1.0000    0.66100   0.32900   0.94000   Biso      1.000     H          0.12954300000000002           
         H27       1.0000    0.96500   0.36600   0.02000   Biso      1.000     H          0.547096  
         H28       1.0000    0.33900   0.67100   0.06000   Biso      1.000     H          0.12954300000000002           
         H29       1.0000    0.23500   0.57100   0.97700   Biso      1.000     H          0.09649400000000001           
         H30       1.0000    0.75800   0.29800   0.64300   Biso      1.000     H          0.15294000000000002           
         H31       1.0000    0.03500   0.63400   0.98000   Biso      1.000     H          0.547096  
         H32       1.0000    0.16100   0.17100   0.44000   Biso      1.000     H          0.12954300000000002           
         Mg1       1.0000    0.41703   0.03595   0.96041   Biso      1.000     Mg          1.3519430000000001  
         Mg2       1.0000    0.91703   0.53595   0.96041   Biso      1.000     Mg          1.3519430000000001  
         Mg3       1.0000    0.00000   0.39659   0.25000   Biso      1.000     Mg          1.426996  
         Mg4       1.0000    0.50000   0.89659   0.25000   Biso      1.000     Mg          1.426996  
         Mg5       1.0000    0.08297   0.53595   0.53959   Biso      1.000     Mg          1.3519430000000001  
         Mg6       1.0000    0.50000   0.10341   0.75000   Biso      1.000     Mg          1.426996  
         Mg7       1.0000    0.91703   0.46405   0.46041   Biso      1.000     Mg          1.3519430000000001  
         Mg8       1.0000    0.58297   0.03595   0.53959   Biso      1.000     Mg          1.3519430000000001  
         Mg9       1.0000    0.58297   0.96405   0.03959   Biso      1.000     Mg          1.3519430000000001  
         Mg10      1.0000    0.08297   0.46405   0.03959   Biso      1.000     Mg          1.3519430000000001  
         Mg11      1.0000    0.00000   0.60341   0.75000   Biso      1.000     Mg          1.426996  
         Mg12      1.0000    0.41703   0.96405   0.46041   Biso      1.000     Mg          1.3519430000000001  
         N1        1.0000    0.81640   0.56780   0.38990   Biso      1.000     N          -0.321746           
         N2        1.0000    0.31640   0.93220   0.88990   Biso      1.000     N          -0.321746           
         N3        1.0000    0.18360   0.56780   0.11010   Biso      1.000     N          -0.321746           
         N4        1.0000    0.68360   0.06780   0.11010   Biso      1.000     N          -0.321746           
         N5        1.0000    0.18360   0.43220   0.61010   Biso      1.000     N          -0.321746           
         N6        1.0000    0.81640   0.43220   0.88990   Biso      1.000     N          -0.321746           
         N7        1.0000    0.68360   0.93220   0.61010   Biso      1.000     N          -0.321746           
         N8        1.0000    0.31640   0.06780   0.38990   Biso      1.000     N          -0.321746           
         O1        1.0000    0.02100   0.41030   0.44540   Biso      1.000     O          -1.270267           
         O2        1.0000    0.92470   0.51440   0.28050   Biso      1.000     O          -0.685846           
         O3        1.0000    0.86949   0.59120   0.10180   Biso      1.000     O          -0.5872069999999999           
         O4        1.0000    0.64534   0.83280   0.12830   Biso      1.000     O          -0.62662  
         O5        1.0000    0.42470   0.98560   0.78050   Biso      1.000     O          -0.685846           
         O6        1.0000    0.36949   0.90880   0.60180   Biso      1.000     O          -0.5872069999999999           
         O7        1.0000    0.14534   0.66720   0.62830   Biso      1.000     O          -0.62662  
         O8        1.0000    0.08117   0.71790   0.77120   Biso      1.000     O          -0.639482           
         O9        1.0000    0.52100   0.91030   0.44540   Biso      1.000     O          -1.270267           
         O10       1.0000    0.08117   0.28210   0.27120   Biso      1.000     O          -0.639482           
         O11       1.0000    0.14534   0.33280   0.12830   Biso      1.000     O          -0.62662  
         O12       1.0000    0.36949   0.09120   0.10180   Biso      1.000     O          -0.5872069999999999           
         O13       1.0000    0.58117   0.78210   0.27120   Biso      1.000     O          -0.639482           
         O14       1.0000    0.42470   0.01440   0.28050   Biso      1.000     O          -0.685846           
         O15       1.0000    0.52100   0.08970   0.94540   Biso      1.000     O          -1.270267           
         O16       1.0000    0.07530   0.51440   0.21950   Biso      1.000     O          -0.685846           
         O17       1.0000    0.85466   0.66720   0.87170   Biso      1.000     O          -0.626621           
         O18       1.0000    0.35466   0.83280   0.37170   Biso      1.000     O          -0.62662  
         O19       1.0000    0.91883   0.71790   0.72880   Biso      1.000     O          -0.639482           
         O20       1.0000    0.47900   0.08970   0.55460   Biso      1.000     O          -1.270267           
         O21       1.0000    0.57530   0.98560   0.71950   Biso      1.000     O          -0.685846           
         O22       1.0000    0.97900   0.58970   0.55460   Biso      1.000     O          -1.270267           
         O23       1.0000    0.41883   0.21790   0.72880   Biso      1.000     O          -0.639482           
         O24       1.0000    0.35466   0.16720   0.87170   Biso      1.000     O          -0.62662  
         O25       1.0000    0.13051   0.40880   0.89820   Biso      1.000     O          -0.5872069999999999           
         O26       1.0000    0.07530   0.48560   0.71950   Biso      1.000     O          -0.685846           
         O27       1.0000    0.47900   0.91030   0.05460   Biso      1.000     O          -1.270267           
         O28       1.0000    0.13051   0.59120   0.39820   Biso      1.000     O          -0.5872069999999999           
         O29       1.0000    0.91883   0.28210   0.22880   Biso      1.000     O          -0.639482           
         O30       1.0000    0.86949   0.40880   0.60180   Biso      1.000     O          -0.5872069999999999           
         O31       1.0000    0.64534   0.16720   0.62830   Biso      1.000     O          -0.62662  
         O32       1.0000    0.58117   0.21790   0.77120   Biso      1.000     O          -0.639482           
         O33       1.0000    0.02100   0.58970   0.94540   Biso      1.000     O          -1.270267           
         O34       1.0000    0.85466   0.33280   0.37170   Biso      1.000     O          -0.62662  
         O35       1.0000    0.63051   0.09120   0.39820   Biso      1.000     O          -0.5872069999999999           
         O36       1.0000    0.57530   0.01440   0.21950   Biso      1.000     O          -0.685846           
         O37       1.0000    0.63051   0.90880   0.89820   Biso      1.000     O          -0.5872069999999999           
         O38       1.0000    0.41883   0.78210   0.22880   Biso      1.000     O          -0.639482           
         O39       1.0000    0.92470   0.48560   0.78050   Biso      1.000     O          -0.685846           
         O40       1.0000    0.97900   0.41030   0.05460   Biso      1.000     O          -1.270267 