
##########################################################################
#               Crystallographic Information Format file
#               Produced by PyCifRW module
#
#  This is a CIF file.  CIF has been adopted by the International
#  Union of Crystallography as the standard for data archiving and
#  transmission.
#
#  For information on this file format, follow the CIF links at
#  http://www.iucr.org
##########################################################################

data_image0

_cell_length_a                          18.0488
_cell_length_b                          12.7515
_cell_length_c                          10.9978
_cell_angle_alpha                       90
_cell_angle_beta                        103.13
_cell_angle_gamma                       90
_symmetry_space_group_name_H-M          'P 1'
_symmetry_int_tables_number             1
loop_
  _symmetry_equiv_pos_as_xyz
         'x, y, z' 
loop_
  _atom_site_label
  _atom_site_occupancy
  _atom_site_fract_x
  _atom_site_fract_y
  _atom_site_fract_z
  _atom_site_thermal_displace_type
  _atom_site_B_iso_or_equiv
  _atom_site_type_symbol
  _atom_site_charge
         C1        1.0000    0.73999   0.40550   0.55330   Biso      1.000     C          0.114054  
         C2        1.0000    0.19825   0.70430   0.27750   Biso      1.000     C          0.036306  
         C3        1.0000    0.62824   0.43213   0.78900   Biso      1.000     C          0.606322  
         C4        1.0000    0.86325   0.21731   0.77750   Biso      1.000     C          0.609203  
         C5        1.0000    0.20164   0.66210   0.39520   Biso      1.000     C          -0.154156           
         C6        1.0000    0.36325   0.28269   0.27750   Biso      1.000     C          0.609203  
         C7        1.0000    0.12824   0.06787   0.28900   Biso      1.000     C          0.606321  
         C8        1.0000    0.23999   0.09450   0.05330   Biso      1.000     C          0.114054  
         C9        1.0000    0.26001   0.59450   0.44670   Biso      1.000     C          0.114057  
         C10       1.0000    0.29836   0.16210   0.10480   Biso      1.000     C          -0.154153           
         C11       1.0000    0.80968   0.89409   0.77240   Biso      1.000     C          0.100843  
         C12       1.0000    0.75345   0.82590   0.71410   Biso      1.000     C          -0.158988           
         C13       1.0000    0.30968   0.60591   0.27240   Biso      1.000     C          0.100843  
         C14       1.0000    0.69825   0.79570   0.77750   Biso      1.000     C          0.036306  
         C15       1.0000    0.70164   0.83790   0.89520   Biso      1.000     C          -0.154156           
         C16       1.0000    0.37176   0.56787   0.21100   Biso      1.000     C          0.606322  
         C17       1.0000    0.76001   0.90550   0.94670   Biso      1.000     C          0.114057  
         C18       1.0000    0.13675   0.21731   0.72250   Biso      1.000     C          0.609203  
         C19       1.0000    0.87176   0.93213   0.71100   Biso      1.000     C          0.606322  
         C20       1.0000    0.63675   0.71731   0.72250   Biso      1.000     C          0.609203  
         C21       1.0000    0.30175   0.20430   0.22250   Biso      1.000     C          0.036306  
         C22       1.0000    0.37176   0.43213   0.71100   Biso      1.000     C          0.606322  
         C23       1.0000    0.24655   0.17410   0.28590   Biso      1.000     C          -0.158991           
         C24       1.0000    0.19032   0.10591   0.22760   Biso      1.000     C          0.100845  
         C25       1.0000    0.26001   0.40550   0.94670   Biso      1.000     C          0.114054  
         C26       1.0000    0.13675   0.78269   0.22250   Biso      1.000     C          0.609203  
         C27       1.0000    0.30968   0.39409   0.77240   Biso      1.000     C          0.100843  
         C28       1.0000    0.25345   0.32590   0.71410   Biso      1.000     C          -0.158988           
         C29       1.0000    0.20164   0.33790   0.89520   Biso      1.000     C          -0.154153           
         C30       1.0000    0.79836   0.33790   0.60480   Biso      1.000     C          -0.154153           
         C31       1.0000    0.19825   0.29570   0.77750   Biso      1.000     C          0.036306  
         C32       1.0000    0.23999   0.90550   0.55330   Biso      1.000     C          0.114054  
         C33       1.0000    0.19032   0.89409   0.72760   Biso      1.000     C          0.100843  
         C34       1.0000    0.24655   0.82590   0.78590   Biso      1.000     C          -0.158988           
         C35       1.0000    0.76001   0.09450   0.44670   Biso      1.000     C          0.114054  
         C36       1.0000    0.30175   0.79570   0.72250   Biso      1.000     C          0.036306  
         C37       1.0000    0.29836   0.83790   0.60480   Biso      1.000     C          -0.154153           
         C38       1.0000    0.62824   0.56787   0.28900   Biso      1.000     C          0.606321  
         C39       1.0000    0.80175   0.29570   0.72250   Biso      1.000     C          0.036306  
         C40       1.0000    0.70164   0.16210   0.39520   Biso      1.000     C          -0.154153           
         C41       1.0000    0.12824   0.93213   0.78900   Biso      1.000     C          0.606322  
         C42       1.0000    0.36325   0.71731   0.77750   Biso      1.000     C          0.609203  
         C43       1.0000    0.73999   0.59450   0.05330   Biso      1.000     C          0.114054  
         C44       1.0000    0.69825   0.20430   0.27750   Biso      1.000     C          0.036306  
         C45       1.0000    0.79836   0.66210   0.10480   Biso      1.000     C          -0.154153           
         C46       1.0000    0.80175   0.70430   0.22250   Biso      1.000     C          0.036306  
         C47       1.0000    0.63675   0.28269   0.22250   Biso      1.000     C          0.609203  
         C48       1.0000    0.74655   0.67410   0.28590   Biso      1.000     C          -0.158991           
         C49       1.0000    0.69032   0.60591   0.22760   Biso      1.000     C          0.100845  
         C50       1.0000    0.75345   0.17410   0.21410   Biso      1.000     C          -0.158991           
         C51       1.0000    0.80968   0.10591   0.27240   Biso      1.000     C          0.100845  
         C52       1.0000    0.69032   0.39409   0.72760   Biso      1.000     C          0.100843  
         C53       1.0000    0.74655   0.32590   0.78590   Biso      1.000     C          -0.158988           
         C54       1.0000    0.25345   0.67410   0.21410   Biso      1.000     C          -0.158988           
         C55       1.0000    0.86325   0.78269   0.27750   Biso      1.000     C          0.609203  
         C56       1.0000    0.87176   0.06787   0.21100   Biso      1.000     C          0.606321  
         H1        1.0000    0.16380   0.32000   0.94100   Biso      1.000     H          0.133858  
         H2        1.0000    0.26780   0.43400   0.03400   Biso      1.000     H          0.089121  
         H3        1.0000    0.25550   0.69400   0.13600   Biso      1.000     H          0.15331   
         H4        1.0000    0.66380   0.18000   0.44100   Biso      1.000     H          0.133858  
         H5        1.0000    0.26780   0.56600   0.53400   Biso      1.000     H          0.089121  
         H6        1.0000    0.75550   0.19400   0.13600   Biso      1.000     H          0.15331   
         H7        1.0000    0.16380   0.68000   0.44100   Biso      1.000     H          0.133858  
         H8        1.0000    0.03760   0.85500   0.47200   Biso      1.000     H          0.447844  
         H9        1.0000    0.76780   0.06600   0.53400   Biso      1.000     H          0.089121  
         H10       1.0000    0.75550   0.80600   0.63600   Biso      1.000     H          0.15331   
         H11       1.0000    0.53760   0.35500   0.47200   Biso      1.000     H          0.447844  
         H12       1.0000    0.53760   0.64500   0.97200   Biso      1.000     H          0.447844  
         H13       1.0000    0.73220   0.56600   0.96600   Biso      1.000     H          0.089121  
         H14       1.0000    0.96240   0.14500   0.52800   Biso      1.000     H          0.447844  
         H15       1.0000    0.24450   0.80600   0.86400   Biso      1.000     H          0.15331   
         H16       1.0000    0.33620   0.82000   0.55900   Biso      1.000     H          0.133858  
         H17       1.0000    0.23220   0.93400   0.46600   Biso      1.000     H          0.089121  
         H18       1.0000    0.83620   0.68000   0.05900   Biso      1.000     H          0.133858  
         H19       1.0000    0.74450   0.69400   0.36400   Biso      1.000     H          0.15331   
         H20       1.0000    0.46240   0.35500   0.02800   Biso      1.000     H          0.447844  
         H21       1.0000    0.46240   0.64500   0.52800   Biso      1.000     H          0.447844  
         H22       1.0000    0.25550   0.30600   0.63600   Biso      1.000     H          0.15331   
         H23       1.0000    0.74450   0.30600   0.86400   Biso      1.000     H          0.15331   
         H24       1.0000    0.73220   0.43400   0.46600   Biso      1.000     H          0.089121  
         H25       1.0000    0.23220   0.06600   0.96600   Biso      1.000     H          0.089121  
         H26       1.0000    0.33620   0.18000   0.05900   Biso      1.000     H          0.133858  
         H27       1.0000    0.03760   0.14500   0.97200   Biso      1.000     H          0.447844  
         H28       1.0000    0.66380   0.82000   0.94100   Biso      1.000     H          0.133858  
         H29       1.0000    0.76780   0.93400   0.03400   Biso      1.000     H          0.089121  
         H30       1.0000    0.24450   0.19400   0.36400   Biso      1.000     H          0.15331   
         H31       1.0000    0.96240   0.85500   0.02800   Biso      1.000     H          0.447844  
         H32       1.0000    0.83620   0.32000   0.55900   Biso      1.000     H          0.133858  
         Mg1       1.0000    0.58501   0.46350   0.04126   Biso      1.000     Mg          1.351115  
         Mg2       1.0000    0.08501   0.96350   0.04126   Biso      1.000     Mg          1.351115  
         Mg3       1.0000    0.00000   0.09826   0.75000   Biso      1.000     Mg          1.400022  
         Mg4       1.0000    0.50000   0.59826   0.75000   Biso      1.000     Mg          1.400022  
         Mg5       1.0000    0.91499   0.96350   0.45874   Biso      1.000     Mg          1.351115  
         Mg6       1.0000    0.50000   0.40174   0.25000   Biso      1.000     Mg          1.400022  
         Mg7       1.0000    0.08501   0.03650   0.54126   Biso      1.000     Mg          1.351115  
         Mg8       1.0000    0.41499   0.46350   0.45874   Biso      1.000     Mg          1.351115  
         Mg9       1.0000    0.41499   0.53650   0.95874   Biso      1.000     Mg          1.351115  
         Mg10      1.0000    0.91499   0.03650   0.95874   Biso      1.000     Mg          1.351115  
         Mg11      1.0000    0.00000   0.90174   0.25000   Biso      1.000     Mg          1.400022  
         Mg12      1.0000    0.58501   0.53650   0.54126   Biso      1.000     Mg          1.351115  
         N1        1.0000    0.18565   0.93323   0.61203   Biso      1.000     N          -0.336698           
         N2        1.0000    0.68565   0.56677   0.11203   Biso      1.000     N          -0.336698           
         N3        1.0000    0.81435   0.93323   0.88797   Biso      1.000     N          -0.336698           
         N4        1.0000    0.31435   0.43323   0.88797   Biso      1.000     N          -0.336698           
         N5        1.0000    0.81435   0.06677   0.38797   Biso      1.000     N          -0.336698           
         N6        1.0000    0.18565   0.06677   0.11203   Biso      1.000     N          -0.336698           
         N7        1.0000    0.31435   0.56677   0.38797   Biso      1.000     N          -0.336698           
         N8        1.0000    0.68565   0.43323   0.61203   Biso      1.000     N          -0.336698           
         O1        1.0000    0.97880   0.08679   0.55373   Biso      1.000     O          -1.149821           
         O2        1.0000    0.07652   0.98555   0.72054   Biso      1.000     O          -0.685496           
         O3        1.0000    0.13326   0.91067   0.90084   Biso      1.000     O          -0.589029           
         O4        1.0000    0.35463   0.66607   0.86983   Biso      1.000     O          -0.625539           
         O5        1.0000    0.57652   0.51445   0.22054   Biso      1.000     O          -0.685496           
         O6        1.0000    0.63326   0.58933   0.40084   Biso      1.000     O          -0.589029           
         O7        1.0000    0.85463   0.83393   0.36983   Biso      1.000     O          -0.625539           
         O8        1.0000    0.91701   0.79029   0.22387   Biso      1.000     O          -0.642263           
         O9        1.0000    0.47880   0.58679   0.55373   Biso      1.000     O          -1.149821           
         O10       1.0000    0.91701   0.20971   0.72387   Biso      1.000     O          -0.642263           
         O11       1.0000    0.85463   0.16607   0.86983   Biso      1.000     O          -0.625539           
         O12       1.0000    0.63326   0.41067   0.90084   Biso      1.000     O          -0.589029           
         O13       1.0000    0.41701   0.70971   0.72387   Biso      1.000     O          -0.642263           
         O14       1.0000    0.57652   0.48555   0.72054   Biso      1.000     O          -0.685496           
         O15       1.0000    0.47880   0.41321   0.05373   Biso      1.000     O          -1.149821           
         O16       1.0000    0.92348   0.98555   0.77946   Biso      1.000     O          -0.685496           
         O17       1.0000    0.14537   0.83393   0.13017   Biso      1.000     O          -0.625539           
         O18       1.0000    0.64537   0.66607   0.63017   Biso      1.000     O          -0.625539           
         O19       1.0000    0.08299   0.79029   0.27613   Biso      1.000     O          -0.642263           
         O20       1.0000    0.52120   0.41321   0.44627   Biso      1.000     O          -1.149821           
         O21       1.0000    0.42348   0.51445   0.27946   Biso      1.000     O          -0.685496           
         O22       1.0000    0.02120   0.91321   0.44627   Biso      1.000     O          -1.149821           
         O23       1.0000    0.58299   0.29029   0.27613   Biso      1.000     O          -0.642263           
         O24       1.0000    0.64537   0.33393   0.13017   Biso      1.000     O          -0.625539           
         O25       1.0000    0.86674   0.08933   0.09916   Biso      1.000     O          -0.589029           
         O26       1.0000    0.92348   0.01445   0.27946   Biso      1.000     O          -0.685496           
         O27       1.0000    0.52120   0.58679   0.94627   Biso      1.000     O          -1.149821           
         O28       1.0000    0.86674   0.91067   0.59916   Biso      1.000     O          -0.589029           
         O29       1.0000    0.08299   0.20971   0.77613   Biso      1.000     O          -0.642263           
         O30       1.0000    0.13326   0.08933   0.40084   Biso      1.000     O          -0.589029           
         O31       1.0000    0.35463   0.33393   0.36983   Biso      1.000     O          -0.625539           
         O32       1.0000    0.41701   0.29029   0.22387   Biso      1.000     O          -0.642263           
         O33       1.0000    0.97880   0.91321   0.05373   Biso      1.000     O          -1.149821           
         O34       1.0000    0.14537   0.16607   0.63017   Biso      1.000     O          -0.625539           
         O35       1.0000    0.36674   0.41067   0.59916   Biso      1.000     O          -0.589029           
         O36       1.0000    0.42348   0.48555   0.77946   Biso      1.000     O          -0.685496           
         O37       1.0000    0.36674   0.58933   0.09916   Biso      1.000     O          -0.589029           
         O38       1.0000    0.58299   0.70971   0.77613   Biso      1.000     O          -0.642263           
         O39       1.0000    0.07652   0.01445   0.22054   Biso      1.000     O          -0.685496           
         O40       1.0000    0.02120   0.08679   0.94627   Biso      1.000     O          -1.149821 