
##########################################################################
#               Crystallographic Information Format file
#               Produced by PyCifRW module
#
#  This is a CIF file.  CIF has been adopted by the International
#  Union of Crystallography as the standard for data archiving and
#  transmission.
#
#  For information on this file format, follow the CIF links at
#  http://www.iucr.org
##########################################################################

data_image0

_cell_length_a                          13.013
_cell_length_b                          13.846
_cell_length_c                          28.029
_cell_angle_alpha                       75.71
_cell_angle_beta                        79.28
_cell_angle_gamma                       85.59
_symmetry_space_group_name_H-M          'P 1'
_symmetry_int_tables_number             1
loop_
  _symmetry_equiv_pos_as_xyz
         'x, y, z' 
loop_
  _atom_site_label
  _atom_site_occupancy
  _atom_site_fract_x
  _atom_site_fract_y
  _atom_site_fract_z
  _atom_site_thermal_displace_type
  _atom_site_B_iso_or_equiv
  _atom_site_type_symbol
  _atom_site_charge
         C1        1.0000    0.83920   0.96140   0.65960   Biso      1.000     C          0.55992   
         C2        1.0000    0.17550   0.17720   0.54240   Biso      1.000     C          -0.001186           
         C3        1.0000    0.24920   0.24780   0.51830   Biso      1.000     C          -0.091526           
         C4        1.0000    0.28520   0.30690   0.54470   Biso      1.000     C          -0.014706           
         C5        1.0000    0.24700   0.29480   0.59540   Biso      1.000     C          -0.143277           
         C6        1.0000    0.17060   0.22360   0.62070   Biso      1.000     C          0.086433  
         C7        1.0000    0.13490   0.16660   0.59310   Biso      1.000     C          -0.144911           
         C8        1.0000    0.13280   0.21160   0.67560   Biso      1.000     C          0.095481  
         C9        1.0000    0.12690   0.12000   0.01490   Biso      1.000     C          0.608735  
         C10       1.0000    0.03800   0.16790   0.69830   Biso      1.000     C          -0.131755           
         C11       1.0000    0.06330   0.18550   0.77870   Biso      1.000     C          0.004692  
         C12       1.0000    0.15290   0.23600   0.75550   Biso      1.000     C          -0.098263           
         C13       1.0000    0.18600   0.24880   0.70460   Biso      1.000     C          -0.133853           
         C14       1.0000    0.14080   0.11170   0.51330   Biso      1.000     C          0.623944  
         C15       1.0000    0.36050   0.38820   0.51770   Biso      1.000     C          0.637123  
         C16       1.0000    0.02680   0.16910   0.83440   Biso      1.000     C          0.55562   
         C17       1.0000    0.23380   0.61620   0.62520   Biso      1.000     C          -0.003962           
         C18       1.0000    0.00470   0.15600   0.74940   Biso      1.000     C          -0.097144           
         C19       1.0000    0.87310   0.88000   0.98510   Biso      1.000     C          0.609276  
         C20       1.0000    0.63080   0.62390   0.97920   Biso      1.000     C          0.651379  
         C21       1.0000    0.88480   0.89880   0.79320   Biso      1.000     C          -0.128862           
         C22       1.0000    0.52000   0.85980   0.31660   Biso      1.000     C          -0.01395  
         C23       1.0000    0.52000   0.95990   0.31530   Biso      1.000     C          -0.098286           
         C24       1.0000    0.56150   0.02690   0.27090   Biso      1.000     C          -0.139974           
         C25       1.0000    0.84820   0.06830   0.06360   Biso      1.000     C          0.609263  
         C26       1.0000    0.57970   0.32790   0.10800   Biso      1.000     C          0.553706  
         C27       1.0000    0.48040   0.78480   0.36490   Biso      1.000     C          0.570459  
         C28       1.0000    0.69950   0.70820   0.95220   Biso      1.000     C          -0.024282           
         C29       1.0000    0.75290   0.75290   0.97930   Biso      1.000     C          -0.08503  
         C30       1.0000    0.81470   0.83440   0.95510   Biso      1.000     C          -0.007968           
         C31       1.0000    0.82360   0.86920   0.90410   Biso      1.000     C          -0.14499  
         C32       1.0000    0.77540   0.82290   0.87580   Biso      1.000     C          0.093499  
         C33       1.0000    0.71310   0.74200   0.89990   Biso      1.000     C          -0.138006           
         C34       1.0000    0.79100   0.85830   0.82040   Biso      1.000     C          0.093618  
         C35       1.0000    0.71380   0.85080   0.79350   Biso      1.000     C          -0.126557           
         C36       1.0000    0.72900   0.88230   0.74190   Biso      1.000     C          -0.097294           
         C37       1.0000    0.82210   0.92350   0.71560   Biso      1.000     C          0.005535  
         C38       1.0000    0.90000   0.93100   0.74140   Biso      1.000     C          -0.104426           
         C39       1.0000    0.20440   0.70010   0.59180   Biso      1.000     C          -0.100261           
         C40       1.0000    0.10610   0.74630   0.60260   Biso      1.000     C          -0.016552           
         C41       1.0000    0.03910   0.70620   0.64640   Biso      1.000     C          -0.139826           
         C42       1.0000    0.06590   0.62050   0.68010   Biso      1.000     C          0.085694  
         C43       1.0000    0.43850   0.97310   0.72910   Biso      1.000     C          -0.14041  
         C44       1.0000    0.15180   0.93170   0.93640   Biso      1.000     C          0.608884  
         C45       1.0000    0.42030   0.67210   0.89200   Biso      1.000     C          0.553852  
         C46       1.0000    0.51960   0.21520   0.63510   Biso      1.000     C          0.56667   
         C47       1.0000    0.30050   0.29180   0.04780   Biso      1.000     C          -0.026027           
         C48       1.0000    0.24710   0.24710   0.02070   Biso      1.000     C          -0.089665           
         C49       1.0000    0.18530   0.16560   0.04490   Biso      1.000     C          -0.007819           
         C50       1.0000    0.17640   0.13080   0.09590   Biso      1.000     C          -0.147773           
         C51       1.0000    0.22460   0.17710   0.12420   Biso      1.000     C          0.093214  
         C52       1.0000    0.28690   0.25800   0.10010   Biso      1.000     C          -0.139415           
         C53       1.0000    0.20900   0.14170   0.17960   Biso      1.000     C          0.088858  
         C54       1.0000    0.28620   0.14920   0.20650   Biso      1.000     C          -0.13041  
         C55       1.0000    0.27100   0.11770   0.25810   Biso      1.000     C          -0.09608  
         C56       1.0000    0.17790   0.07650   0.28440   Biso      1.000     C          0.004049  
         C57       1.0000    0.10000   0.06900   0.25860   Biso      1.000     C          -0.103099           
         C58       1.0000    0.11520   0.10120   0.20680   Biso      1.000     C          -0.13276  
         C59       1.0000    0.36920   0.37610   0.02080   Biso      1.000     C          0.65073   
         C60       1.0000    0.48000   0.04010   0.68470   Biso      1.000     C          -0.098435           
         C61       1.0000    0.55890   0.82840   0.27390   Biso      1.000     C          -0.098525           
         C62       1.0000    0.48000   0.14020   0.68340   Biso      1.000     C          -0.013649           
         C63       1.0000    0.40140   0.10430   0.77040   Biso      1.000     C          -0.143734           
         C64       1.0000    0.16410   0.57670   0.66870   Biso      1.000     C          -0.153255           
         C65       1.0000    0.98970   0.57260   0.72410   Biso      1.000     C          0.093157  
         C66       1.0000    0.98320   0.47030   0.74000   Biso      1.000     C          -0.138088           
         C67       1.0000    0.90640   0.42450   0.77850   Biso      1.000     C          -0.100702           
         C68       1.0000    0.83350   0.48320   0.80280   Biso      1.000     C          -0.008897           
         C69       1.0000    0.84060   0.58400   0.78880   Biso      1.000     C          -0.093303           
         C70       1.0000    0.91820   0.62930   0.75000   Biso      1.000     C          -0.139399           
         C71       1.0000    0.33910   0.56720   0.61420   Biso      1.000     C          0.546636  
         C72       1.0000    0.07050   0.83560   0.56460   Biso      1.000     C          0.642665  
         C73       1.0000    0.74430   0.43440   0.84120   Biso      1.000     C          0.555545  
         C74       1.0000    0.23900   0.89700   0.89980   Biso      1.000     C          -0.016682           
         C75       1.0000    0.28550   0.80280   0.91220   Biso      1.000     C          -0.106732           
         C76       1.0000    0.36750   0.77350   0.87890   Biso      1.000     C          -0.003878           
         C77       1.0000    0.40260   0.83860   0.83400   Biso      1.000     C          -0.158711           
         C78       1.0000    0.35730   0.93300   0.82060   Biso      1.000     C          0.081242  
         C79       1.0000    0.27340   0.96180   0.85430   Biso      1.000     C          -0.149089           
         C80       1.0000    0.39910   0.00450   0.77250   Biso      1.000     C          0.090487  
         C81       1.0000    0.44110   0.17160   0.72610   Biso      1.000     C          -0.098332           
         C82       1.0000    0.59860   0.89570   0.22960   Biso      1.000     C          -0.143369           
         C83       1.0000    0.16080   0.03860   0.34040   Biso      1.000     C          0.598402  
         C84       1.0000    0.76620   0.38380   0.37480   Biso      1.000     C          -0.001143           
         C85       1.0000    0.08180   0.37070   0.25000   Biso      1.000     C          -0.137385           
         C86       1.0000    0.93670   0.81450   0.22130   Biso      1.000     C          0.004073  
         C87       1.0000    0.99530   0.84400   0.25060   Biso      1.000     C          -0.096689           
         C88       1.0000    0.15940   0.41600   0.21120   Biso      1.000     C          -0.09287  
         C89       1.0000    0.96200   0.83210   0.30170   Biso      1.000     C          -0.132288           
         C90       1.0000    0.16650   0.51680   0.19720   Biso      1.000     C          -0.006241           
         C91       1.0000    0.86720   0.78840   0.32440   Biso      1.000     C          0.093555  
         C92       1.0000    0.86510   0.83340   0.40690   Biso      1.000     C          -0.154898           
         C93       1.0000    0.09360   0.57550   0.22150   Biso      1.000     C          -0.100626           
         C94       1.0000    0.82940   0.77640   0.37930   Biso      1.000     C          0.090042  
         C95       1.0000    0.75300   0.70520   0.40460   Biso      1.000     C          -0.137989           
         C96       1.0000    0.01680   0.52970   0.26000   Biso      1.000     C          -0.137541           
         C97       1.0000    0.01030   0.42740   0.27590   Biso      1.000     C          0.093881  
         C98       1.0000    0.82450   0.82280   0.45760   Biso      1.000     C          -0.007447           
         C99       1.0000    0.71480   0.69310   0.45530   Biso      1.000     C          -0.01533  
         C100      1.0000    0.84710   0.76400   0.24450   Biso      1.000     C          -0.098659           
         C101      1.0000    0.75080   0.75220   0.48170   Biso      1.000     C          -0.080907           
         C102      1.0000    0.81400   0.75120   0.29540   Biso      1.000     C          -0.133393           
         C103      1.0000    0.83590   0.42330   0.33130   Biso      1.000     C          -0.154483           
         C104      1.0000    0.79560   0.29990   0.40820   Biso      1.000     C          -0.098334           
         C105      1.0000    0.97320   0.83090   0.16560   Biso      1.000     C          0.555541  
         C106      1.0000    0.72660   0.03820   0.14570   Biso      1.000     C          -0.148682           
         C107      1.0000    0.64270   0.06700   0.17940   Biso      1.000     C          0.081533  
         C108      1.0000    0.63950   0.61180   0.48230   Biso      1.000     C          0.63881   
         C109      1.0000    0.89390   0.25370   0.39740   Biso      1.000     C          -0.016054           
         C110      1.0000    0.96090   0.29380   0.35360   Biso      1.000     C          -0.139335           
         C111      1.0000    0.59740   0.16140   0.16600   Biso      1.000     C          -0.158306           
         C112      1.0000    0.63250   0.22650   0.12110   Biso      1.000     C          -0.003675           
         C113      1.0000    0.85920   0.88830   0.48670   Biso      1.000     C          0.629193  
         C114      1.0000    0.71450   0.19720   0.08780   Biso      1.000     C          -0.10624  
         C115      1.0000    0.76100   0.10300   0.10020   Biso      1.000     C          -0.016428           
         C116      1.0000    0.93410   0.37950   0.31990   Biso      1.000     C          0.086697  
         C117      1.0000    0.25570   0.56560   0.15880   Biso      1.000     C          0.555423  
         C118      1.0000    0.92950   0.16440   0.43540   Biso      1.000     C          0.639204  
         C119      1.0000    0.66090   0.43280   0.38580   Biso      1.000     C          0.545725  
         C120      1.0000    0.60090   0.99550   0.22750   Biso      1.000     C          0.090724  
         Eu1       1.0000    0.47158   0.53808   0.41513   Biso      1.000     Eu          1.412739  
         Eu2       1.0000    0.48279   0.51908   0.08590   Biso      1.000     Eu          1.414491  
         Eu3       1.0000    0.88045   0.02113   0.55413   Biso      1.000     Eu          1.381531  
         Eu4       1.0000    0.51721   0.48092   0.91410   Biso      1.000     Eu          1.414126  
         Eu5       1.0000    0.96936   0.12466   0.93940   Biso      1.000     Eu          1.389721  
         Eu6       1.0000    0.03064   0.87534   0.06060   Biso      1.000     Eu          1.389644  
         Eu7       1.0000    0.52842   0.46192   0.58487   Biso      1.000     Eu          1.414611  
         H1        1.0000    0.03650   0.04210   0.27590   Biso      1.000     H          0.120563  
         H2        1.0000    0.19130   0.26170   0.77420   Biso      1.000     H          0.122651  
         H3        1.0000    0.43730   0.90580   0.72960   Biso      1.000     H          0.119238  
         H4        1.0000    0.34980   0.17620   0.18950   Biso      1.000     H          0.11634   
         H5        1.0000    0.24640   0.28370   0.68950   Biso      1.000     H          0.120157  
         H6        1.0000    0.31970   0.28970   0.11850   Biso      1.000     H          0.128804  
         H7        1.0000    0.75360   0.71630   0.31050   Biso      1.000     H          0.120127  
         H8        1.0000    0.13710   0.07490   0.11180   Biso      1.000     H          0.131311  
         H9        1.0000    0.80870   0.73830   0.22580   Biso      1.000     H          0.122713  
         H10       1.0000    0.25280   0.27170   0.98630   Biso      1.000     H          0.13034   
         H11       1.0000    0.06150   0.09560   0.19000   Biso      1.000     H          0.121921  
         H12       1.0000    0.32390   0.12430   0.27520   Biso      1.000     H          0.123353  
         H13       1.0000    0.72520   0.74430   0.51570   Biso      1.000     H          0.13738   
         H14       1.0000    0.50730   0.01710   0.65620   Biso      1.000     H          0.129541  
         H15       1.0000    0.92200   0.69840   0.74140   Biso      1.000     H          0.11095   
         H16       1.0000    0.26180   0.75940   0.94270   Biso      1.000     H          0.129738  
         H17       1.0000    0.79290   0.62340   0.80540   Biso      1.000     H          0.116502  
         H18       1.0000    0.72790   0.66610   0.38690   Biso      1.000     H          0.128198  
         H19       1.0000    0.45830   0.81870   0.81210   Biso      1.000     H          0.120674  
         H20       1.0000    0.90370   0.35530   0.78800   Biso      1.000     H          0.115743  
         H21       1.0000    0.24960   0.72600   0.56220   Biso      1.000     H          0.132106  
         H22       1.0000    0.24090   0.02440   0.84590   Biso      1.000     H          0.126849  
         H23       1.0000    0.91670   0.87930   0.39150   Biso      1.000     H          0.130693  
         H24       1.0000    0.37600   0.12740   0.79890   Biso      1.000     H          0.12051   
         H25       1.0000    0.18390   0.51930   0.69070   Biso      1.000     H          0.123121  
         H26       1.0000    0.44120   0.23910   0.72550   Biso      1.000     H          0.120875  
         H27       1.0000    0.00310   0.85340   0.32070   Biso      1.000     H          0.122137  
         H28       1.0000    0.97430   0.73760   0.65350   Biso      1.000     H          0.127019  
         H29       1.0000    0.03210   0.43050   0.72420   Biso      1.000     H          0.108958  
         H30       1.0000    0.05920   0.87290   0.23590   Biso      1.000     H          0.117079  
         H31       1.0000    0.62400   0.87260   0.20110   Biso      1.000     H          0.120568  
         H32       1.0000    0.75040   0.27400   0.43780   Biso      1.000     H          0.132618  
         H33       1.0000    0.99690   0.14660   0.67930   Biso      1.000     H          0.120988  
         H34       1.0000    0.96350   0.95790   0.72410   Biso      1.000     H          0.119362  
         H35       1.0000    0.09630   0.64470   0.21200   Biso      1.000     H          0.115987  
         H36       1.0000    0.67610   0.87570   0.72480   Biso      1.000     H          0.122237  
         H37       1.0000    0.65020   0.82380   0.81050   Biso      1.000     H          0.117014  
         H38       1.0000    0.20710   0.37660   0.19460   Biso      1.000     H          0.117333  
         H39       1.0000    0.68030   0.71030   0.88150   Biso      1.000     H          0.129234  
         H40       1.0000    0.93850   0.90440   0.81000   Biso      1.000     H          0.122611  
         H41       1.0000    0.07800   0.30160   0.25860   Biso      1.000     H          0.111238  
         H42       1.0000    0.74720   0.72830   0.01370   Biso      1.000     H          0.130897  
         H43       1.0000    0.73820   0.24060   0.05730   Biso      1.000     H          0.129757  
         H44       1.0000    0.56270   0.09420   0.27040   Biso      1.000     H          0.119228  
         H45       1.0000    0.54170   0.18130   0.18790   Biso      1.000     H          0.12085   
         H46       1.0000    0.49270   0.98290   0.34380   Biso      1.000     H          0.128713  
         H47       1.0000    0.55880   0.76090   0.27450   Biso      1.000     H          0.120885  
         H48       1.0000    0.75910   0.97560   0.15410   Biso      1.000     H          0.126899  
         H49       1.0000    0.86290   0.92510   0.88820   Biso      1.000     H          0.131502  
         H50       1.0000    0.96790   0.56950   0.27580   Biso      1.000     H          0.109117  
         H51       1.0000    0.94080   0.12710   0.76410   Biso      1.000     H          0.116998  
         H52       1.0000    0.08330   0.12070   0.60850   Biso      1.000     H          0.132638  
         H53       1.0000    0.27210   0.33390   0.61310   Biso      1.000     H          0.127913  
         H54       1.0000    0.02570   0.26240   0.34650   Biso      1.000     H          0.1282    
         H55       1.0000    0.27480   0.25570   0.48430   Biso      1.000     H          0.152016  
         H56       1.0000    0.81610   0.48070   0.30930   Biso      1.000     H          0.122938  
         O1        1.0000    0.98120   0.87310   0.57781   Biso      1.000     O          -0.563489           
         O2        1.0000    0.88920   0.98420   0.07753   Biso      1.000     O          -0.536483           
         O3        1.0000    0.32460   0.50820   0.14131   Biso      1.000     O          -0.569044           
         O4        1.0000    0.25940   0.65960   0.14720   Biso      1.000     O          -0.448075           
         O5        1.0000    0.01880   0.12690   0.42219   Biso      1.000     O          -0.649403           
         O6        1.0000    0.86880   0.13530   0.47613   Biso      1.000     O          -0.603545           
         O7        1.0000    0.38870   0.39290   0.97430   Biso      1.000     O          -0.620398           
         O8        1.0000    0.59570   0.39190   0.42349   Biso      1.000     O          -0.516981           
         O9        1.0000    0.63980   0.51700   0.35810   Biso      1.000     O          -0.546926           
         O10       1.0000    0.09840   0.03240   0.03301   Biso      1.000     O          -0.591209           
         O11       1.0000    0.10740   0.17310   0.97435   Biso      1.000     O          -0.516864           
         O12       1.0000    0.04470   0.88890   0.14483   Biso      1.000     O          -0.547939           
         O13       1.0000    0.40180   0.42800   0.04495   Biso      1.000     O          -0.605345           
         O14       1.0000    0.62460   0.59060   0.52898   Biso      1.000     O          -0.624174           
         O15       1.0000    0.60000   0.56710   0.45682   Biso      1.000     O          -0.626187           
         O16       1.0000    0.22040   0.06450   0.36426   Biso      1.000     O          -0.634084           
         O17       1.0000    0.79890   0.89890   0.52615   Biso      1.000     O          -0.523101           
         O18       1.0000    0.08710   0.98210   0.36136   Biso      1.000     O          -0.667685           
         O19       1.0000    0.94470   0.93210   0.47240   Biso      1.000     O          -0.721872           
         O20       1.0000    0.93050   0.78590   0.14101   Biso      1.000     O          -0.527178           
         O21       1.0000    0.87640   0.12750   0.02166   Biso      1.000     O          -0.575202           
         O22       1.0000    0.55670   0.18500   0.59690   Biso      1.000     O          -0.426788           
         O23       1.0000    0.50400   0.35080   0.13824   Biso      1.000     O          -0.566149           
         O24       1.0000    0.13120   0.86470   0.52387   Biso      1.000     O          -0.707585           
         O25       1.0000    0.40430   0.60810   0.57651   Biso      1.000     O          -0.522768           
         O26       1.0000    0.36020   0.48300   0.64190   Biso      1.000     O          -0.543465           
         O27       1.0000    0.06950   0.21410   0.85899   Biso      1.000     O          -0.52498  
         O28       1.0000    0.95530   0.11110   0.85517   Biso      1.000     O          -0.550107           
         O29       1.0000    0.37540   0.40940   0.47102   Biso      1.000     O          -0.625411           
         O30       1.0000    0.40000   0.43290   0.54318   Biso      1.000     O          -0.62519  
         O31       1.0000    0.20110   0.10110   0.47385   Biso      1.000     O          -0.629069           
         O32       1.0000    0.05530   0.06790   0.52760   Biso      1.000     O          -0.662009           
         O33       1.0000    0.91290   0.01790   0.63864   Biso      1.000     O          -0.553505           
         O34       1.0000    0.74060   0.34040   0.85280   Biso      1.000     O          -0.447621           
         O35       1.0000    0.67540   0.49180   0.85869   Biso      1.000     O          -0.567582           
         O36       1.0000    0.89260   0.82690   0.02565   Biso      1.000     O          -0.520436           
         O37       1.0000    0.11080   0.01580   0.92247   Biso      1.000     O          -0.536091           
         O38       1.0000    0.12360   0.87250   0.97834   Biso      1.000     O          -0.5729   
         O39       1.0000    0.61130   0.60710   0.02570   Biso      1.000     O          -0.624744           
         O40       1.0000    0.49600   0.64920   0.86176   Biso      1.000     O          -0.566202           
         O41       1.0000    0.59820   0.57200   0.95505   Biso      1.000     O          -0.60987  
         O42       1.0000    0.44330   0.81500   0.40310   Biso      1.000     O          -0.45776  
         O43       1.0000    0.38710   0.61330   0.93314   Biso      1.000     O          -0.541858           
         O44       1.0000    0.49080   0.69450   0.36314   Biso      1.000     O          -0.602662           
         O45       1.0000    0.50920   0.30550   0.63686   Biso      1.000     O          -0.60089  
         O46       1.0000    0.61290   0.38670   0.06686   Biso      1.000     O          -0.540371           
         O47       1.0000    0.77960   0.93550   0.63574   Biso      1.000     O          -0.518521           
         O48       1.0000    0.90160   0.96760   0.96699   Biso      1.000     O          -0.594603           
         Tb1       1.0000    0.11955   0.97887   0.44587   Biso      1.000     Tb          2.070977 