
##########################################################################
#               Crystallographic Information Format file
#               Produced by PyCifRW module
#
#  This is a CIF file.  CIF has been adopted by the International
#  Union of Crystallography as the standard for data archiving and
#  transmission.
#
#  For information on this file format, follow the CIF links at
#  http://www.iucr.org
##########################################################################

data_image0

_cell_length_a                          13.006
_cell_length_b                          13.821
_cell_length_c                          27.982
_cell_angle_alpha                       75.67
_cell_angle_beta                        79.35
_cell_angle_gamma                       85.62
_symmetry_space_group_name_H-M          'P 1'
_symmetry_int_tables_number             1
loop_
  _symmetry_equiv_pos_as_xyz
         'x, y, z' 
loop_
  _atom_site_label
  _atom_site_occupancy
  _atom_site_fract_x
  _atom_site_fract_y
  _atom_site_fract_z
  _atom_site_thermal_displace_type
  _atom_site_B_iso_or_equiv
  _atom_site_type_symbol
  _atom_site_charge
         C1        1.0000    0.83870   0.96110   0.65930   Biso      1.000     C          0.555093  
         C2        1.0000    0.17470   0.17710   0.54270   Biso      1.000     C          -0.001819           
         C3        1.0000    0.24930   0.24750   0.51850   Biso      1.000     C          -0.086121           
         C4        1.0000    0.28420   0.30690   0.54510   Biso      1.000     C          -0.017069           
         C5        1.0000    0.24800   0.29420   0.59550   Biso      1.000     C          -0.142843           
         C6        1.0000    0.17160   0.22340   0.62090   Biso      1.000     C          0.085579  
         C7        1.0000    0.13440   0.16650   0.59330   Biso      1.000     C          -0.147435           
         C8        1.0000    0.13390   0.21120   0.67560   Biso      1.000     C          0.090664  
         C9        1.0000    0.12700   0.11990   0.01530   Biso      1.000     C          0.644619  
         C10       1.0000    0.03790   0.16660   0.69880   Biso      1.000     C          -0.133411           
         C11       1.0000    0.06350   0.18520   0.77920   Biso      1.000     C          0.000935  
         C12       1.0000    0.15330   0.23710   0.75570   Biso      1.000     C          -0.093357           
         C13       1.0000    0.18720   0.24800   0.70480   Biso      1.000     C          -0.14077  
         C14       1.0000    0.14020   0.11130   0.51330   Biso      1.000     C          0.621567  
         C15       1.0000    0.35980   0.38740   0.51780   Biso      1.000     C          0.635284  
         C16       1.0000    0.02640   0.16950   0.83460   Biso      1.000     C          0.596906  
         C17       1.0000    0.23430   0.61650   0.62510   Biso      1.000     C          -0.00577  
         C18       1.0000    0.00510   0.15510   0.74990   Biso      1.000     C          -0.096245           
         C19       1.0000    0.87300   0.88010   0.98470   Biso      1.000     C          0.652553  
         C20       1.0000    0.63040   0.62340   0.97890   Biso      1.000     C          0.649606  
         C21       1.0000    0.88410   0.90010   0.79330   Biso      1.000     C          -0.131129           
         C22       1.0000    0.51980   0.86010   0.31690   Biso      1.000     C          -0.013317           
         C23       1.0000    0.52130   0.96050   0.31560   Biso      1.000     C          -0.097232           
         C24       1.0000    0.56100   0.02740   0.27100   Biso      1.000     C          -0.137887           
         C25       1.0000    0.84910   0.06840   0.06400   Biso      1.000     C          0.654463  
         C26       1.0000    0.58020   0.32800   0.10810   Biso      1.000     C          0.555573  
         C27       1.0000    0.48080   0.78480   0.36510   Biso      1.000     C          0.573241  
         C28       1.0000    0.70000   0.70800   0.95200   Biso      1.000     C          -0.019623           
         C29       1.0000    0.75180   0.75340   0.97900   Biso      1.000     C          -0.086808           
         C30       1.0000    0.81470   0.83440   0.95510   Biso      1.000     C          -0.011544           
         C31       1.0000    0.82360   0.87000   0.90400   Biso      1.000     C          -0.145258           
         C32       1.0000    0.77540   0.82330   0.87540   Biso      1.000     C          0.090991  
         C33       1.0000    0.71290   0.74270   0.89980   Biso      1.000     C          -0.143123           
         C34       1.0000    0.79040   0.85890   0.82000   Biso      1.000     C          0.096446  
         C35       1.0000    0.71430   0.85090   0.79320   Biso      1.000     C          -0.12863  
         C36       1.0000    0.72840   0.88330   0.74180   Biso      1.000     C          -0.096348           
         C37       1.0000    0.82170   0.92430   0.71540   Biso      1.000     C          0.006057  
         C38       1.0000    0.89980   0.93160   0.74090   Biso      1.000     C          -0.105146           
         C39       1.0000    0.20430   0.70150   0.59220   Biso      1.000     C          -0.101406           
         C40       1.0000    0.10560   0.74710   0.60270   Biso      1.000     C          -0.016015           
         C41       1.0000    0.03870   0.70690   0.64610   Biso      1.000     C          -0.141924           
         C42       1.0000    0.06700   0.62070   0.68000   Biso      1.000     C          0.082007  
         C43       1.0000    0.43900   0.97260   0.72900   Biso      1.000     C          -0.137553           
         C44       1.0000    0.15090   0.93160   0.93600   Biso      1.000     C          0.647542  
         C45       1.0000    0.41980   0.67200   0.89190   Biso      1.000     C          0.555293  
         C46       1.0000    0.51920   0.21520   0.63490   Biso      1.000     C          0.569665  
         C47       1.0000    0.30000   0.29200   0.04800   Biso      1.000     C          -0.022611           
         C48       1.0000    0.24820   0.24660   0.02100   Biso      1.000     C          -0.0941   
         C49       1.0000    0.18530   0.16560   0.04490   Biso      1.000     C          -0.006665           
         C50       1.0000    0.17640   0.13000   0.09600   Biso      1.000     C          -0.142006           
         C51       1.0000    0.22460   0.17670   0.12460   Biso      1.000     C          0.086973  
         C52       1.0000    0.28710   0.25730   0.10020   Biso      1.000     C          -0.149798           
         C53       1.0000    0.20960   0.14110   0.18000   Biso      1.000     C          0.093194  
         C54       1.0000    0.28570   0.14910   0.20680   Biso      1.000     C          -0.133585           
         C55       1.0000    0.27160   0.11670   0.25820   Biso      1.000     C          -0.095315           
         C56       1.0000    0.17830   0.07570   0.28460   Biso      1.000     C          0.001433  
         C57       1.0000    0.10020   0.06840   0.25910   Biso      1.000     C          -0.10437  
         C58       1.0000    0.11590   0.09990   0.20670   Biso      1.000     C          -0.137633           
         C59       1.0000    0.36960   0.37660   0.02110   Biso      1.000     C          0.6483    
         C60       1.0000    0.47870   0.03950   0.68440   Biso      1.000     C          -0.096917           
         C61       1.0000    0.55910   0.82780   0.27400   Biso      1.000     C          -0.102247           
         C62       1.0000    0.48020   0.13990   0.68310   Biso      1.000     C          -0.010778           
         C63       1.0000    0.40030   0.10510   0.77020   Biso      1.000     C          -0.140752           
         C64       1.0000    0.16470   0.57700   0.66850   Biso      1.000     C          -0.153224           
         C65       1.0000    0.98900   0.57360   0.72470   Biso      1.000     C          0.093945  
         C66       1.0000    0.98340   0.47060   0.74010   Biso      1.000     C          -0.134279           
         C67       1.0000    0.90710   0.42500   0.77920   Biso      1.000     C          -0.102852           
         C68       1.0000    0.83300   0.48270   0.80290   Biso      1.000     C          -0.014479           
         C69       1.0000    0.84060   0.58530   0.78890   Biso      1.000     C          -0.090346           
         C70       1.0000    0.91820   0.63000   0.75030   Biso      1.000     C          -0.144448           
         C71       1.0000    0.33890   0.56710   0.61430   Biso      1.000     C          0.549506  
         C72       1.0000    0.07040   0.83710   0.56470   Biso      1.000     C          0.648186  
         C73       1.0000    0.74410   0.43390   0.84100   Biso      1.000     C          0.559618  
         C74       1.0000    0.23800   0.89730   0.89990   Biso      1.000     C          -0.013461           
         C75       1.0000    0.28520   0.80310   0.91210   Biso      1.000     C          -0.102081           
         C76       1.0000    0.36730   0.77320   0.87890   Biso      1.000     C          -0.007129           
         C77       1.0000    0.40170   0.83830   0.83340   Biso      1.000     C          -0.158236           
         C78       1.0000    0.35710   0.93350   0.82030   Biso      1.000     C          0.08296   
         C79       1.0000    0.27400   0.96130   0.85440   Biso      1.000     C          -0.14658  
         C80       1.0000    0.39930   0.00390   0.77260   Biso      1.000     C          0.09053   
         C81       1.0000    0.44090   0.17220   0.72600   Biso      1.000     C          -0.101425           
         C82       1.0000    0.59970   0.89490   0.22980   Biso      1.000     C          -0.14092  
         C83       1.0000    0.16130   0.03890   0.34070   Biso      1.000     C          0.59337   
         C84       1.0000    0.76570   0.38350   0.37490   Biso      1.000     C          -0.006243           
         C85       1.0000    0.08180   0.37000   0.24970   Biso      1.000     C          -0.1422   
         C86       1.0000    0.93650   0.81480   0.22080   Biso      1.000     C          0.003274  
         C87       1.0000    0.99490   0.84490   0.25010   Biso      1.000     C          -0.097167           
         C88       1.0000    0.15940   0.41470   0.21110   Biso      1.000     C          -0.088917           
         C89       1.0000    0.96210   0.83340   0.30120   Biso      1.000     C          -0.129475           
         C90       1.0000    0.16700   0.51730   0.19710   Biso      1.000     C          -0.010194           
         C91       1.0000    0.86610   0.78880   0.32440   Biso      1.000     C          0.092649  
         C92       1.0000    0.86560   0.83350   0.40670   Biso      1.000     C          -0.154272           
         C93       1.0000    0.09290   0.57500   0.22080   Biso      1.000     C          -0.102445           
         C94       1.0000    0.82840   0.77660   0.37910   Biso      1.000     C          0.091333  
         C95       1.0000    0.75200   0.70580   0.40450   Biso      1.000     C          -0.135394           
         C96       1.0000    0.01660   0.52940   0.25990   Biso      1.000     C          -0.13503  
         C97       1.0000    0.01100   0.42640   0.27530   Biso      1.000     C          0.094865  
         C98       1.0000    0.82530   0.82290   0.45730   Biso      1.000     C          -0.007927           
         C99       1.0000    0.75070   0.75250   0.48150   Biso      1.000     C          -0.073922           
         C100      1.0000    0.84670   0.76290   0.24430   Biso      1.000     C          -0.095982           
         C101      1.0000    0.71580   0.69310   0.45490   Biso      1.000     C          -0.014144           
         C102      1.0000    0.81280   0.75200   0.29520   Biso      1.000     C          -0.135092           
         C103      1.0000    0.83530   0.42300   0.33150   Biso      1.000     C          -0.153706           
         C104      1.0000    0.60070   0.99610   0.22740   Biso      1.000     C          0.090757  
         C105      1.0000    0.97360   0.83050   0.16540   Biso      1.000     C          0.554561  
         C106      1.0000    0.72600   0.03870   0.14560   Biso      1.000     C          -0.14654  
         C107      1.0000    0.64290   0.06650   0.17970   Biso      1.000     C          0.082867  
         C108      1.0000    0.89440   0.25290   0.39730   Biso      1.000     C          -0.015604           
         C109      1.0000    0.96130   0.29310   0.35390   Biso      1.000     C          -0.140977           
         C110      1.0000    0.64020   0.61260   0.48220   Biso      1.000     C          0.636026  
         C111      1.0000    0.59830   0.16170   0.16660   Biso      1.000     C          -0.157746           
         C112      1.0000    0.63270   0.22680   0.12110   Biso      1.000     C          -0.006995           
         C113      1.0000    0.93300   0.37930   0.32000   Biso      1.000     C          0.083113  
         C114      1.0000    0.71480   0.19690   0.08790   Biso      1.000     C          -0.103051           
         C115      1.0000    0.76200   0.10270   0.10010   Biso      1.000     C          -0.013064           
         C116      1.0000    0.85980   0.88870   0.48670   Biso      1.000     C          0.628187  
         C117      1.0000    0.25590   0.56610   0.15900   Biso      1.000     C          0.556111  
         C118      1.0000    0.92960   0.16290   0.43530   Biso      1.000     C          0.644412  
         C119      1.0000    0.66110   0.43290   0.38570   Biso      1.000     C          0.549645  
         C120      1.0000    0.79570   0.29850   0.40780   Biso      1.000     C          -0.098762           
         Eu1       1.0000    0.88028   0.02118   0.55405   Biso      1.000     Eu          1.377258  
         Eu2       1.0000    0.52855   0.46218   0.58492   Biso      1.000     Eu          1.414315  
         Eu3       1.0000    0.47145   0.53782   0.41508   Biso      1.000     Eu          1.412427  
         Eu4       1.0000    0.03068   0.87524   0.06050   Biso      1.000     Eu          1.392184  
         Eu5       1.0000    0.51709   0.48078   0.91415   Biso      1.000     Eu          1.410309  
         Eu6       1.0000    0.48291   0.51922   0.08585   Biso      1.000     Eu          1.411441  
         H1        1.0000    0.45610   0.81770   0.81110   Biso      1.000     H          0.122298  
         H2        1.0000    0.92240   0.69920   0.74150   Biso      1.000     H          0.111179  
         H3        1.0000    0.06300   0.09300   0.18970   Biso      1.000     H          0.122223  
         H4        1.0000    0.26180   0.75960   0.94270   Biso      1.000     H          0.128805  
         H5        1.0000    0.03630   0.04250   0.27650   Biso      1.000     H          0.12044   
         H6        1.0000    0.79330   0.62500   0.80560   Biso      1.000     H          0.117007  
         H7        1.0000    0.19080   0.26450   0.77410   Biso      1.000     H          0.124226  
         H8        1.0000    0.32510   0.12240   0.27510   Biso      1.000     H          0.122037  
         H9        1.0000    0.34880   0.17740   0.18980   Biso      1.000     H          0.116303  
         H10       1.0000    0.32070   0.28860   0.11850   Biso      1.000     H          0.128177  
         H11       1.0000    0.24860   0.28160   0.68990   Biso      1.000     H          0.119699  
         H12       1.0000    0.75140   0.71840   0.31010   Biso      1.000     H          0.120227  
         H13       1.0000    0.13740   0.07370   0.11180   Biso      1.000     H          0.130368  
         H14       1.0000    0.80920   0.73550   0.22590   Biso      1.000     H          0.123391  
         H15       1.0000    0.25530   0.27050   0.98640   Biso      1.000     H          0.130285  
         H16       1.0000    0.43890   0.90500   0.72960   Biso      1.000     H          0.119711  
         H17       1.0000    0.72430   0.74510   0.51540   Biso      1.000     H          0.135166  
         H18       1.0000    0.05870   0.87400   0.23530   Biso      1.000     H          0.118313  
         H19       1.0000    0.50410   0.01670   0.65570   Biso      1.000     H          0.130146  
         H20       1.0000    0.97340   0.73770   0.65310   Biso      1.000     H          0.12837   
         H21       1.0000    0.00340   0.85510   0.32010   Biso      1.000     H          0.121719  
         H22       1.0000    0.44160   0.23970   0.72530   Biso      1.000     H          0.12321   
         H23       1.0000    0.18450   0.51940   0.69050   Biso      1.000     H          0.122248  
         H24       1.0000    0.37340   0.12860   0.79850   Biso      1.000     H          0.119483  
         H25       1.0000    0.91780   0.87890   0.39110   Biso      1.000     H          0.131932  
         H26       1.0000    0.03190   0.43110   0.72400   Biso      1.000     H          0.110972  
         H27       1.0000    0.24220   0.02440   0.84620   Biso      1.000     H          0.126465  
         H28       1.0000    0.90580   0.35570   0.78940   Biso      1.000     H          0.114979  
         H29       1.0000    0.72590   0.66710   0.38680   Biso      1.000     H          0.127235  
         H30       1.0000    0.24990   0.72850   0.56290   Biso      1.000     H          0.131484  
         H31       1.0000    0.62660   0.87140   0.20150   Biso      1.000     H          0.11975   
         H32       1.0000    0.75010   0.27150   0.43710   Biso      1.000     H          0.132076  
         H33       1.0000    0.99660   0.14490   0.67990   Biso      1.000     H          0.119698  
         H34       1.0000    0.96370   0.95750   0.72350   Biso      1.000     H          0.120084  
         H35       1.0000    0.09420   0.64430   0.21060   Biso      1.000     H          0.11554   
         H36       1.0000    0.67490   0.87760   0.72490   Biso      1.000     H          0.121367  
         H37       1.0000    0.65120   0.82260   0.81020   Biso      1.000     H          0.11717   
         H38       1.0000    0.20670   0.37500   0.19440   Biso      1.000     H          0.118144  
         H39       1.0000    0.67930   0.71140   0.88150   Biso      1.000     H          0.129231  
         H40       1.0000    0.93700   0.90700   0.81030   Biso      1.000     H          0.123766  
         H41       1.0000    0.07760   0.30080   0.25850   Biso      1.000     H          0.111751  
         H42       1.0000    0.74470   0.72950   0.01360   Biso      1.000     H          0.129634  
         H43       1.0000    0.73820   0.24040   0.05730   Biso      1.000     H          0.12713   
         H44       1.0000    0.56110   0.09500   0.27040   Biso      1.000     H          0.119606  
         H45       1.0000    0.54390   0.18230   0.18890   Biso      1.000     H          0.122586  
         H46       1.0000    0.49590   0.98330   0.34430   Biso      1.000     H          0.129115  
         H47       1.0000    0.55840   0.76030   0.27470   Biso      1.000     H          0.122966  
         H48       1.0000    0.75780   0.97560   0.15380   Biso      1.000     H          0.12502   
         H49       1.0000    0.86260   0.92630   0.88820   Biso      1.000     H          0.129333  
         H50       1.0000    0.96810   0.56890   0.27600   Biso      1.000     H          0.110437  
         H51       1.0000    0.94130   0.12600   0.76470   Biso      1.000     H          0.118932  
         H52       1.0000    0.08220   0.12110   0.60890   Biso      1.000     H          0.133177  
         H53       1.0000    0.27410   0.33290   0.61320   Biso      1.000     H          0.126361  
         H54       1.0000    0.02660   0.26230   0.34690   Biso      1.000     H          0.129669  
         H55       1.0000    0.27570   0.25490   0.48460   Biso      1.000     H          0.142773  
         H56       1.0000    0.81550   0.48060   0.30950   Biso      1.000     H          0.121989  
         O1        1.0000    0.98120   0.87340   0.57754   Biso      1.000     O          -0.562952           
         O2        1.0000    0.40240   0.42800   0.04520   Biso      1.000     O          -0.602993           
         O3        1.0000    0.88910   0.98360   0.07757   Biso      1.000     O          -0.564266           
         O4        1.0000    0.32570   0.50800   0.14153   Biso      1.000     O          -0.566712           
         O5        1.0000    0.25990   0.65930   0.14692   Biso      1.000     O          -0.446374           
         O6        1.0000    0.01880   0.12660   0.42246   Biso      1.000     O          -0.647465           
         O7        1.0000    0.86870   0.13510   0.47589   Biso      1.000     O          -0.602469           
         O8        1.0000    0.38870   0.39300   0.97442   Biso      1.000     O          -0.622819           
         O9        1.0000    0.59550   0.39250   0.42354   Biso      1.000     O          -0.517206           
         O10       1.0000    0.63990   0.51690   0.35808   Biso      1.000     O          -0.544298           
         O11       1.0000    0.04520   0.88960   0.14447   Biso      1.000     O          -0.545843           
         O12       1.0000    0.93130   0.78580   0.14087   Biso      1.000     O          -0.525636           
         O13       1.0000    0.87590   0.12730   0.02152   Biso      1.000     O          -0.730075           
         O14       1.0000    0.10620   0.17330   0.97464   Biso      1.000     O          -0.652922           
         O15       1.0000    0.62380   0.59060   0.52878   Biso      1.000     O          -0.619152           
         O16       1.0000    0.59970   0.56730   0.45670   Biso      1.000     O          -0.62482  
         O17       1.0000    0.22170   0.06460   0.36484   Biso      1.000     O          -0.634428           
         O18       1.0000    0.79910   0.89900   0.52589   Biso      1.000     O          -0.523388           
         O19       1.0000    0.08700   0.98240   0.36163   Biso      1.000     O          -0.665793           
         O20       1.0000    0.94570   0.93200   0.47215   Biso      1.000     O          -0.724876           
         O21       1.0000    0.09880   0.03210   0.03281   Biso      1.000     O          -0.624244           
         O22       1.0000    0.74010   0.34070   0.85308   Biso      1.000     O          -0.478282           
         O23       1.0000    0.55610   0.18560   0.59700   Biso      1.000     O          -0.427617           
         O24       1.0000    0.61240   0.38720   0.06681   Biso      1.000     O          -0.539457           
         O25       1.0000    0.13130   0.86490   0.52411   Biso      1.000     O          -0.708511           
         O26       1.0000    0.40450   0.60750   0.57646   Biso      1.000     O          -0.522706           
         O27       1.0000    0.36010   0.48310   0.64192   Biso      1.000     O          -0.540014           
         O28       1.0000    0.06870   0.21420   0.85913   Biso      1.000     O          -0.651115           
         O29       1.0000    0.95480   0.11040   0.85553   Biso      1.000     O          -0.664401           
         O30       1.0000    0.37620   0.40940   0.47122   Biso      1.000     O          -0.618626           
         O31       1.0000    0.40030   0.43270   0.54330   Biso      1.000     O          -0.620287           
         O32       1.0000    0.20090   0.10100   0.47411   Biso      1.000     O          -0.624775           
         O33       1.0000    0.05430   0.06800   0.52785   Biso      1.000     O          -0.663152           
         O34       1.0000    0.50410   0.35110   0.13833   Biso      1.000     O          -0.565421           
         O35       1.0000    0.67430   0.49200   0.85847   Biso      1.000     O          -0.566988           
         O36       1.0000    0.91300   0.01760   0.63837   Biso      1.000     O          -0.54953  
         O37       1.0000    0.89380   0.82670   0.02536   Biso      1.000     O          -0.539299           
         O38       1.0000    0.11090   0.01640   0.92243   Biso      1.000     O          -0.646632           
         O39       1.0000    0.12410   0.87270   0.97848   Biso      1.000     O          -0.602608           
         O40       1.0000    0.61130   0.60700   0.02558   Biso      1.000     O          -0.624997           
         O41       1.0000    0.49590   0.64890   0.86167   Biso      1.000     O          -0.568593           
         O42       1.0000    0.59760   0.57200   0.95480   Biso      1.000     O          -0.615112           
         O43       1.0000    0.44390   0.81440   0.40300   Biso      1.000     O          -0.458473           
         O44       1.0000    0.38760   0.61280   0.93319   Biso      1.000     O          -0.535695           
         O45       1.0000    0.49050   0.69420   0.36318   Biso      1.000     O          -0.606694           
         O46       1.0000    0.50950   0.30580   0.63682   Biso      1.000     O          -0.605182           
         O47       1.0000    0.77830   0.93540   0.63516   Biso      1.000     O          -0.520495           
         O48       1.0000    0.90120   0.96790   0.96719   Biso      1.000     O          -0.71678  
         Tb1       1.0000    0.11972   0.97882   0.44595   Biso      1.000     Tb          2.06621   
         Tb2       1.0000    0.96932   0.12476   0.93950   Biso      1.000     Tb          2.099595 