
##########################################################################
#               Crystallographic Information Format file
#               Produced by PyCifRW module
#
#  This is a CIF file.  CIF has been adopted by the International
#  Union of Crystallography as the standard for data archiving and
#  transmission.
#
#  For information on this file format, follow the CIF links at
#  http://www.iucr.org
##########################################################################

data_image0

_cell_length_a                          13.725
_cell_length_b                          14.074
_cell_length_c                          14.187
_cell_angle_alpha                       114.15
_cell_angle_beta                        114.2
_cell_angle_gamma                       98.24
_symmetry_space_group_name_H-M          'P 1'
_symmetry_int_tables_number             1
loop_
  _symmetry_equiv_pos_as_xyz
         'x, y, z' 
loop_
  _atom_site_label
  _atom_site_occupancy
  _atom_site_fract_x
  _atom_site_fract_y
  _atom_site_fract_z
  _atom_site_thermal_displace_type
  _atom_site_B_iso_or_equiv
  _atom_site_type_symbol
  _atom_site_charge
         C1        1.0000    0.14519   0.68146   0.70626   Biso      1.000     C          0.680629  
         C2        1.0000    0.86238   0.94532   0.27745   Biso      1.000     C          0.684439  
         C3        1.0000    0.83340   0.64420   0.11695   Biso      1.000     C          -0.059987           
         C4        1.0000    0.87617   0.75671   0.20307   Biso      1.000     C          -0.098775           
         C5        1.0000    0.81955   0.82572   0.17883   Biso      1.000     C          -0.062559           
         C6        1.0000    0.72061   0.78124   0.06672   Biso      1.000     C          -0.130517           
         C7        1.0000    0.67603   0.66724   0.98157   Biso      1.000     C          -0.077988           
         C8        1.0000    0.73160   0.59623   0.00477   Biso      1.000     C          -0.1862   
         C9        1.0000    0.23658   0.69241   0.00329   Biso      1.000     C          -0.07258200000000001          
         C10       1.0000    0.19430   0.71869   0.91346   Biso      1.000     C          -0.151692           
         C11       1.0000    0.20551   0.66790   0.81335   Biso      1.000     C          -0.030708           
         C12       1.0000    0.26603   0.59625   0.80770   Biso      1.000     C          -0.10896600000000001          
         C13       1.0000    0.31226   0.57423   0.90013   Biso      1.000     C          -0.062471000000000006         
         C14       1.0000    0.29549   0.61875   0.99817   Biso      1.000     C          -0.207683           
         C15       1.0000    0.10194   0.69919   0.40781   Biso      1.000     C          0.611925  
         C16       1.0000    0.14504   0.53662   0.14845   Biso      1.000     C          -0.091259           
         C17       1.0000    0.51508   0.39041   0.79041   Biso      1.000     C          -0.205827           
         C18       1.0000    0.42979   0.31823   0.78516   Biso      1.000     C          -0.077606           
         C19       1.0000    0.31372   0.28203   0.69909   Biso      1.000     C          -0.130892           
         C20       1.0000    0.28124   0.32183   0.62068   Biso      1.000     C          -0.021602           
         C21       1.0000    0.76342   0.30759   0.99671   Biso      1.000     C          -0.07258200000000001          
         C22       1.0000    0.80570   0.28131   0.08654   Biso      1.000     C          -0.151693           
         C23       1.0000    0.79449   0.33210   0.18665   Biso      1.000     C          -0.030708           
         C24       1.0000    0.73397   0.40375   0.19230   Biso      1.000     C          -0.10896600000000001          
         C25       1.0000    0.68774   0.42577   0.09987   Biso      1.000     C          -0.062471000000000006         
         C26       1.0000    0.70451   0.38125   0.00183   Biso      1.000     C          -0.207683           
         C27       1.0000    0.89806   0.30081   0.59219   Biso      1.000     C          0.611925  
         C28       1.0000    0.09525   0.56768   0.21852   Biso      1.000     C          -0.11386099999999999          
         C29       1.0000    0.85496   0.46338   0.85155   Biso      1.000     C          -0.091259           
         C30       1.0000    0.84470   0.33358   0.66875   Biso      1.000     C          -0.008823000000000001         
         C31       1.0000    0.73384   0.26752   0.62759   Biso      1.000     C          -0.11569000000000002          
         C32       1.0000    0.68337   0.30005   0.69612   Biso      1.000     C          -0.090156           
         C33       1.0000    0.74307   0.39885   0.81030   Biso      1.000     C          -0.21701199999999998          
         C34       1.0000    0.15598   0.28997   0.53235   Biso      1.000     C          0.636129  
         C35       1.0000    0.48037   0.42686   0.70731   Biso      1.000     C          -0.084302           
         C36       1.0000    0.36502   0.39584   0.62627   Biso      1.000     C          -0.10828199999999999          
         C37       1.0000    0.90475   0.43232   0.78148   Biso      1.000     C          -0.11386099999999999          
         C38       1.0000    0.15530   0.66642   0.33125   Biso      1.000     C          -0.008823000000000001         
         C39       1.0000    0.85481   0.31854   0.29374   Biso      1.000     C          0.680629  
         C40       1.0000    0.13762   0.05468   0.72255   Biso      1.000     C          0.684439  
         C41       1.0000    0.48492   0.60959   0.20959   Biso      1.000     C          -0.205827           
         C42       1.0000    0.68628   0.71797   0.30091   Biso      1.000     C          -0.130892           
         C43       1.0000    0.26616   0.73248   0.37241   Biso      1.000     C          -0.11569000000000002          
         C44       1.0000    0.16660   0.35580   0.88305   Biso      1.000     C          -0.059987           
         C45       1.0000    0.12383   0.24329   0.79693   Biso      1.000     C          -0.098774           
         C46       1.0000    0.18045   0.17428   0.82117   Biso      1.000     C          -0.062559           
         C47       1.0000    0.27939   0.21876   0.93328   Biso      1.000     C          -0.130517           
         C48       1.0000    0.32397   0.33276   0.01843   Biso      1.000     C          -0.077988           
         C49       1.0000    0.26840   0.40377   0.99523   Biso      1.000     C          -0.1862   
         C50       1.0000    0.71876   0.67817   0.37932   Biso      1.000     C          -0.021602           
         C51       1.0000    0.63498   0.60416   0.37373   Biso      1.000     C          -0.10828399999999999          
         C52       1.0000    0.57021   0.68177   0.21484   Biso      1.000     C          -0.077606           
         C53       1.0000    0.51963   0.57314   0.29269   Biso      1.000     C          -0.0843   
         C54       1.0000    0.31663   0.69995   0.30388   Biso      1.000     C          -0.090156           
         C55       1.0000    0.25693   0.60115   0.18970   Biso      1.000     C          -0.21701199999999998          
         C56       1.0000    0.84402   0.71003   0.46765   Biso      1.000     C          0.636129  
         H1        1.0000    0.69240   0.19930   0.55150   Biso      1.000     H          0.113081  
         H2        1.0000    0.84230   0.22850   0.07940   Biso      1.000     H          0.084904  
         H3        1.0000    0.72440   0.43750   0.25950   Biso      1.000     H          0.11386199999999999           
         H4        1.0000    0.94440   0.78710   0.27900   Biso      1.000     H          0.117421  
         H5        1.0000    0.12620   0.40170   0.86600   Biso      1.000     H          0.105473  
         H6        1.0000    0.87380   0.59830   0.13400   Biso      1.000     H          0.105473  
         H7        1.0000    0.05560   0.21290   0.72100   Biso      1.000     H          0.117421  
         H8        1.0000    0.45070   0.29320   0.84090   Biso      1.000     H          0.098493  
         H9        1.0000    0.60700   0.25470   0.66540   Biso      1.000     H          0.09889500000000001           
         H10       1.0000    0.25680   0.23000   0.69420   Biso      1.000     H          0.0908    
         H11       1.0000    0.31640   0.17130   0.95160   Biso      1.000     H          0.099125  
         H12       1.0000    0.89790   0.52990   0.92910   Biso      1.000     H          0.098669  
         H13       1.0000    0.34320   0.42520   0.57450   Biso      1.000     H          0.122172  
         H14       1.0000    0.68360   0.82870   0.04840   Biso      1.000     H          0.099125  
         H15       1.0000    0.53720   0.47370   0.70690   Biso      1.000     H          0.103752  
         H16       1.0000    0.98010   0.47870   0.81060   Biso      1.000     H          0.111246  
         H17       1.0000    0.64370   0.47200   0.10300   Biso      1.000     H          0.101332  
         H18       1.0000    0.39320   0.36310   0.09360   Biso      1.000     H          0.102129  
         H19       1.0000    0.30760   0.80070   0.44850   Biso      1.000     H          0.113081  
         H20       1.0000    0.54930   0.70680   0.15910   Biso      1.000     H          0.09849400000000001           
         H21       1.0000    0.39300   0.74530   0.33460   Biso      1.000     H          0.09889500000000001           
         H22       1.0000    0.01990   0.52130   0.18940   Biso      1.000     H          0.111246  
         H23       1.0000    0.10210   0.47010   0.07090   Biso      1.000     H          0.098669  
         H24       1.0000    0.46280   0.52630   0.29310   Biso      1.000     H          0.103751  
         H25       1.0000    0.35630   0.52800   0.89700   Biso      1.000     H          0.101332  
         H26       1.0000    0.65680   0.57480   0.42550   Biso      1.000     H          0.122172  
         H27       1.0000    0.60680   0.63690   0.90640   Biso      1.000     H          0.10213   
         H28       1.0000    0.15770   0.77150   0.92060   Biso      1.000     H          0.084904  
         H29       1.0000    0.74320   0.77000   0.30580   Biso      1.000     H          0.09080099999999999           
         H30       1.0000    0.22520   0.72510   0.06940   Biso      1.000     H          0.103674  
         H31       1.0000    0.77480   0.27490   0.93060   Biso      1.000     H          0.103674  
         H32       1.0000    0.27560   0.56250   0.74050   Biso      1.000     H          0.11386199999999999           
         Li1       1.0000    0.81720   0.07410   0.14720   Biso      1.000     Li          0.886927  
         Li2       1.0000    0.91690   0.93800   0.50300   Biso      1.000     Li          0.8635790000000001  
         Li3       1.0000    0.96440   0.56670   0.45710   Biso      1.000     Li          0.8125180000000001  
         Li4       1.0000    0.08210   0.82550   0.59990   Biso      1.000     Li          0.808834  
         Li5       1.0000    0.08310   0.06200   0.49700   Biso      1.000     Li          0.8635790000000001  
         Li6       1.0000    0.18280   0.92590   0.85280   Biso      1.000     Li          0.886927  
         Li7       1.0000    0.03560   0.43330   0.54290   Biso      1.000     Li          0.8125180000000001  
         Li8       1.0000    0.91790   0.17450   0.40010   Biso      1.000     Li          0.808834  
         O1        1.0000    0.92137   0.96720   0.38424   Biso      1.000     O          -0.764722           
         O2        1.0000    0.85228   0.22256   0.27550   Biso      1.000     O          -0.790044           
         O3        1.0000    0.90494   0.40624   0.39579   Biso      1.000     O          -0.667574           
         O4        1.0000    0.98195   0.37604   0.61879   Biso      1.000     O          -0.6821189999999999           
         O5        1.0000    0.16164   0.98305   0.74869   Biso      1.000     O          -0.751614           
         O6        1.0000    0.14772   0.77744   0.72450   Biso      1.000     O          -0.790044           
         O7        1.0000    0.07863   0.03280   0.61576   Biso      1.000     O          -0.764722           
         O8        1.0000    0.85383   0.19949   0.50598   Biso      1.000     O          -0.696204           
         O9        1.0000    0.83836   0.01695   0.25131   Biso      1.000     O          -0.751614           
         O10       1.0000    0.13093   0.35924   0.50246   Biso      1.000     O          -0.648046           
         O11       1.0000    0.14617   0.80051   0.49402   Biso      1.000     O          -0.696204           
         O12       1.0000    0.01805   0.62396   0.38121   Biso      1.000     O          -0.6821189999999999           
         O13       1.0000    0.08463   0.19591   0.49273   Biso      1.000     O          -0.7866529999999999           
         O14       1.0000    0.09506   0.59376   0.60421   Biso      1.000     O          -0.667574           
         O15       1.0000    0.91537   0.80409   0.50727   Biso      1.000     O          -0.7866529999999999           
         O16       1.0000    0.86907   0.64076   0.49754   Biso      1.000     O          -0.648046           
         Si1       1.0000    0.32817   0.56007   0.09972   Biso      1.000     Si          0.652404  
         Si2       1.0000    0.67183   0.43993   0.90028   Biso      1.000     Si          0.652404 