
##########################################################################
#               Crystallographic Information Format file
#               Produced by PyCifRW module
#
#  This is a CIF file.  CIF has been adopted by the International
#  Union of Crystallography as the standard for data archiving and
#  transmission.
#
#  For information on this file format, follow the CIF links at
#  http://www.iucr.org
##########################################################################

data_image0

_cell_length_a                          10.0861
_cell_length_b                          10.2527
_cell_length_c                          16.4013
_cell_angle_alpha                       90
_cell_angle_beta                        95.478
_cell_angle_gamma                       90
_symmetry_space_group_name_H-M          'P 1'
_symmetry_int_tables_number             1
loop_
  _symmetry_equiv_pos_as_xyz
         'x, y, z' 
loop_
  _atom_site_label
  _atom_site_occupancy
  _atom_site_fract_x
  _atom_site_fract_y
  _atom_site_fract_z
  _atom_site_thermal_displace_type
  _atom_site_B_iso_or_equiv
  _atom_site_type_symbol
  _atom_site_charge
         C1        1.0000    0.19770   0.47820   0.65075   Biso      1.000     C          0.623921  
         C2        1.0000    0.19770   0.02180   0.15075   Biso      1.000     C          0.623921  
         C3        1.0000    0.29870   0.23070   0.37418   Biso      1.000     C          -0.106271           
         C4        1.0000    0.16540   0.21870   0.34341   Biso      1.000     C          -0.03188  
         C5        1.0000    0.13350   0.15090   0.27117   Biso      1.000     C          -0.115516           
         C6        1.0000    0.23280   0.09340   0.23012   Biso      1.000     C          -0.015074           
         C7        1.0000    0.36500   0.10400   0.26225   Biso      1.000     C          -0.099457           
         C8        1.0000    0.54230   0.30740   0.86560   Biso      1.000     C          0.578631  
         C9        1.0000    0.05890   0.22060   0.88938   Biso      1.000     C          0.617407  
         C10       1.0000    0.39900   0.32600   0.83342   Biso      1.000     C          -0.002935           
         C11       1.0000    0.29870   0.26930   0.87418   Biso      1.000     C          -0.106271           
         C12       1.0000    0.16540   0.28130   0.84341   Biso      1.000     C          -0.031879           
         C13       1.0000    0.13350   0.34910   0.77117   Biso      1.000     C          -0.115516           
         C14       1.0000    0.23280   0.40660   0.73012   Biso      1.000     C          -0.015074           
         C15       1.0000    0.36500   0.39600   0.76225   Biso      1.000     C          -0.099456           
         C16       1.0000    0.45770   0.80740   0.63440   Biso      1.000     C          0.578631  
         C17       1.0000    0.94110   0.72060   0.61062   Biso      1.000     C          0.617407  
         C18       1.0000    0.80230   0.97820   0.84925   Biso      1.000     C          0.623921  
         C19       1.0000    0.60100   0.82600   0.66658   Biso      1.000     C          -0.002935           
         C20       1.0000    0.70130   0.76930   0.62582   Biso      1.000     C          -0.106271           
         C21       1.0000    0.83460   0.78130   0.65659   Biso      1.000     C          -0.031879           
         C22       1.0000    0.86650   0.84910   0.72883   Biso      1.000     C          -0.115516           
         C23       1.0000    0.76720   0.90660   0.76988   Biso      1.000     C          -0.015074           
         C24       1.0000    0.63500   0.89600   0.73775   Biso      1.000     C          -0.099456           
         C25       1.0000    0.05890   0.27940   0.38938   Biso      1.000     C          0.617407  
         C26       1.0000    0.54230   0.19260   0.36560   Biso      1.000     C          0.57863   
         C27       1.0000    0.39900   0.17400   0.33342   Biso      1.000     C          -0.002934           
         C28       1.0000    0.76720   0.59340   0.26988   Biso      1.000     C          -0.015074           
         C29       1.0000    0.86650   0.65090   0.22883   Biso      1.000     C          -0.115517           
         C30       1.0000    0.83460   0.71870   0.15659   Biso      1.000     C          -0.031879           
         C31       1.0000    0.70130   0.73070   0.12582   Biso      1.000     C          -0.106271           
         C32       1.0000    0.60100   0.67400   0.16658   Biso      1.000     C          -0.002934           
         C33       1.0000    0.80230   0.52180   0.34925   Biso      1.000     C          0.623921  
         C34       1.0000    0.94110   0.77940   0.11062   Biso      1.000     C          0.617408  
         C35       1.0000    0.45770   0.69260   0.13440   Biso      1.000     C          0.578631  
         C36       1.0000    0.63500   0.60400   0.23775   Biso      1.000     C          -0.099456           
         H1        1.0000    0.67930   0.77710   0.07770   Biso      1.000     H          0.134953  
         H2        1.0000    0.95510   0.64380   0.25010   Biso      1.000     H          0.131144  
         H3        1.0000    0.56870   0.56360   0.26430   Biso      1.000     H          0.135344  
         H4        1.0000    0.32070   0.27710   0.42230   Biso      1.000     H          0.134953  
         H5        1.0000    0.43130   0.06360   0.23570   Biso      1.000     H          0.135345  
         H6        1.0000    0.32070   0.22290   0.92230   Biso      1.000     H          0.134953  
         H7        1.0000    0.04490   0.14380   0.24990   Biso      1.000     H          0.131144  
         H8        1.0000    0.43130   0.43640   0.73570   Biso      1.000     H          0.135345  
         H9        1.0000    0.67930   0.72290   0.57770   Biso      1.000     H          0.134953  
         H10       1.0000    0.95510   0.85620   0.75010   Biso      1.000     H          0.131144  
         H11       1.0000    0.56870   0.93640   0.76430   Biso      1.000     H          0.135345  
         H12       1.0000    0.04490   0.35620   0.74990   Biso      1.000     H          0.131144  
         O1        1.0000    0.09030   0.05340   0.11179   Biso      1.000     O          -0.561156           
         O2        1.0000    0.27907   0.93764   0.13154   Biso      1.000     O          -0.538059           
         O3        1.0000    0.63268   0.33557   0.82183   Biso      1.000     O          -0.534336           
         O4        1.0000    0.56657   0.26169   0.93694   Biso      1.000     O          -0.525122           
         O5        1.0000    0.09790   0.14471   0.94645   Biso      1.000     O          -0.548173           
         O6        1.0000    0.94028   0.25276   0.86720   Biso      1.000     O          -0.524293           
         O7        1.0000    0.90210   0.64471   0.55355   Biso      1.000     O          -0.548172           
         O8        1.0000    0.43343   0.76169   0.56306   Biso      1.000     O          -0.525122           
         O9        1.0000    0.36732   0.83557   0.67817   Biso      1.000     O          -0.534336           
         O10       1.0000    0.27907   0.56236   0.63154   Biso      1.000     O          -0.538059           
         O11       1.0000    0.94028   0.24724   0.36720   Biso      1.000     O          -0.524294           
         O12       1.0000    0.09030   0.44660   0.61179   Biso      1.000     O          -0.561155           
         O13       1.0000    0.05972   0.75276   0.63280   Biso      1.000     O          -0.524294           
         O14       1.0000    0.09790   0.35529   0.44645   Biso      1.000     O          -0.548172           
         O15       1.0000    0.72093   0.06236   0.86846   Biso      1.000     O          -0.538059           
         O16       1.0000    0.63268   0.16443   0.32183   Biso      1.000     O          -0.534336           
         O17       1.0000    0.72093   0.43764   0.36846   Biso      1.000     O          -0.538059           
         O18       1.0000    0.90970   0.55340   0.38821   Biso      1.000     O          -0.561155           
         O19       1.0000    0.05972   0.74724   0.13280   Biso      1.000     O          -0.524294           
         O20       1.0000    0.90210   0.85529   0.05355   Biso      1.000     O          -0.548173           
         O21       1.0000    0.43343   0.73831   0.06306   Biso      1.000     O          -0.525122           
         O22       1.0000    0.36732   0.66443   0.17817   Biso      1.000     O          -0.534336           
         O23       1.0000    0.90970   0.94660   0.88821   Biso      1.000     O          -0.561156           
         O24       1.0000    0.56657   0.23831   0.43694   Biso      1.000     O          -0.525121           
         Zn1       1.0000    0.00000   0.50000   0.50000   Biso      1.000     Zn          0.955896  
         Zn2       1.0000    0.00000   0.00000   0.00000   Biso      1.000     Zn          0.955898  
         Zn3       1.0000    0.22790   0.73913   0.57645   Biso      1.000     Zn          0.902921  
         Zn4       1.0000    0.77210   0.23913   0.92355   Biso      1.000     Zn          0.902921  
         Zn5       1.0000    0.77210   0.26087   0.42355   Biso      1.000     Zn          0.90292   
         Zn6       1.0000    0.22790   0.76087   0.07645   Biso      1.000     Zn          0.902921 