
##########################################################################
#               Crystallographic Information Format file
#               Produced by PyCifRW module
#
#  This is a CIF file.  CIF has been adopted by the International
#  Union of Crystallography as the standard for data archiving and
#  transmission.
#
#  For information on this file format, follow the CIF links at
#  http://www.iucr.org
##########################################################################

data_image0

_cell_length_a                          15.2614
_cell_length_b                          15.2614
_cell_length_c                          15.2614
_cell_angle_alpha                       76.2159
_cell_angle_beta                        76.2159
_cell_angle_gamma                       76.2159
_symmetry_space_group_name_H-M          'P 1'
_symmetry_int_tables_number             1
loop_
  _symmetry_equiv_pos_as_xyz
         'x, y, z' 
loop_
  _atom_site_label
  _atom_site_occupancy
  _atom_site_fract_x
  _atom_site_fract_y
  _atom_site_fract_z
  _atom_site_thermal_displace_type
  _atom_site_B_iso_or_equiv
  _atom_site_type_symbol
  _atom_site_charge
         C1        1.0000    0.01703   0.83063   0.56537   Biso      1.000     C          0.60466   
         C2        1.0000    0.16937   0.43463   0.98297   Biso      1.000     C          0.604703  
         C3        1.0000    0.98262   0.26885   0.39628   Biso      1.000     C          -0.010552           
         C4        1.0000    0.98742   0.32500   0.45368   Biso      1.000     C          -0.138975           
         C5        1.0000    0.98297   0.16937   0.43463   Biso      1.000     C          0.60466   
         C6        1.0000    0.01738   0.60372   0.73115   Biso      1.000     C          -0.010553           
         C7        1.0000    0.01258   0.54632   0.67500   Biso      1.000     C          -0.138974           
         C8        1.0000    0.01703   0.56537   0.83063   Biso      1.000     C          0.604659  
         C9        1.0000    0.60372   0.73115   0.01738   Biso      1.000     C          -0.003413           
         C10       1.0000    0.54632   0.67500   0.01258   Biso      1.000     C          -0.14018  
         C11       1.0000    0.56537   0.83063   0.01703   Biso      1.000     C          0.599257  
         C12       1.0000    0.73115   0.01738   0.60372   Biso      1.000     C          -0.009928           
         C13       1.0000    0.67500   0.01258   0.54632   Biso      1.000     C          -0.138825           
         C14       1.0000    0.83063   0.01703   0.56537   Biso      1.000     C          0.604703  
         C15       1.0000    0.60372   0.01738   0.73115   Biso      1.000     C          -0.003413           
         C16       1.0000    0.54632   0.01258   0.67500   Biso      1.000     C          -0.140181           
         C17       1.0000    0.56537   0.01703   0.83063   Biso      1.000     C          0.599256  
         C18       1.0000    0.73115   0.60372   0.01738   Biso      1.000     C          -0.009928           
         C19       1.0000    0.67500   0.54632   0.01258   Biso      1.000     C          -0.138824           
         C20       1.0000    0.83063   0.56537   0.01703   Biso      1.000     C          0.604703  
         C21       1.0000    0.01738   0.73115   0.60372   Biso      1.000     C          -0.010553           
         C22       1.0000    0.01258   0.67500   0.54632   Biso      1.000     C          -0.138974           
         C23       1.0000    0.39628   0.26885   0.98262   Biso      1.000     C          -0.003412           
         C24       1.0000    0.98262   0.39628   0.26885   Biso      1.000     C          -0.010552           
         C25       1.0000    0.32500   0.45368   0.98742   Biso      1.000     C          -0.138828           
         C26       1.0000    0.26885   0.39628   0.98262   Biso      1.000     C          -0.009925           
         C27       1.0000    0.43463   0.98297   0.16937   Biso      1.000     C          0.599256  
         C28       1.0000    0.45368   0.98742   0.32500   Biso      1.000     C          -0.140185           
         C29       1.0000    0.58155   0.01002   0.58155   Biso      1.000     C          0.14553   
         C30       1.0000    0.69527   0.02030   0.69527   Biso      1.000     C          -0.116426           
         C31       1.0000    0.52391   0.00251   0.52391   Biso      1.000     C          -0.098604           
         C32       1.0000    0.58155   0.58155   0.01002   Biso      1.000     C          0.145529  
         C33       1.0000    0.69527   0.69527   0.02030   Biso      1.000     C          -0.116426           
         C34       1.0000    0.52391   0.52391   0.00251   Biso      1.000     C          -0.098604           
         C35       1.0000    0.01002   0.58155   0.58155   Biso      1.000     C          0.145039  
         C36       1.0000    0.02030   0.69527   0.69527   Biso      1.000     C          -0.115191           
         C37       1.0000    0.00251   0.52391   0.52391   Biso      1.000     C          -0.098908           
         C38       1.0000    0.98998   0.41845   0.41845   Biso      1.000     C          0.145022  
         C39       1.0000    0.97970   0.30473   0.30473   Biso      1.000     C          -0.11519  
         C40       1.0000    0.98742   0.45368   0.32500   Biso      1.000     C          -0.138975           
         C41       1.0000    0.99749   0.47609   0.47609   Biso      1.000     C          -0.098768           
         C42       1.0000    0.30473   0.30473   0.97970   Biso      1.000     C          -0.116425           
         C43       1.0000    0.47609   0.47609   0.99749   Biso      1.000     C          -0.098464           
         C44       1.0000    0.41845   0.98998   0.41845   Biso      1.000     C          0.145513  
         C45       1.0000    0.30473   0.97970   0.30473   Biso      1.000     C          -0.116433           
         C46       1.0000    0.47609   0.99749   0.47609   Biso      1.000     C          -0.098464           
         C47       1.0000    0.16937   0.98297   0.43463   Biso      1.000     C          0.604703  
         C48       1.0000    0.32500   0.98742   0.45368   Biso      1.000     C          -0.138829           
         C49       1.0000    0.26885   0.98262   0.39628   Biso      1.000     C          -0.00992  
         C50       1.0000    0.43463   0.16937   0.98297   Biso      1.000     C          0.599257  
         C51       1.0000    0.45368   0.32500   0.98742   Biso      1.000     C          -0.140182           
         C52       1.0000    0.39628   0.98262   0.26885   Biso      1.000     C          -0.003406           
         C53       1.0000    0.41845   0.41845   0.98998   Biso      1.000     C          0.145512  
         C54       1.0000    0.98297   0.43463   0.16937   Biso      1.000     C          0.604659  
         Cu1       1.0000    0.57971   0.01224   0.01224   Biso      1.000     Cu          0.852216  
         Cu2       1.0000    0.01224   0.57971   0.01224   Biso      1.000     Cu          0.891787  
         Cu3       1.0000    0.01224   0.01224   0.57971   Biso      1.000     Cu          0.89179   
         Cu4       1.0000    0.98776   0.42029   0.98776   Biso      1.000     Cu          0.891787  
         Cu5       1.0000    0.42029   0.98776   0.98776   Biso      1.000     Cu          0.852216  
         Cu6       1.0000    0.98776   0.98776   0.42029   Biso      1.000     Cu          0.89179   
         H1        1.0000    0.73350   0.02430   0.73350   Biso      1.000     H          0.13529   
         H2        1.0000    0.51610   0.98900   0.30060   Biso      1.000     H          0.13772   
         H3        1.0000    0.98900   0.30060   0.51610   Biso      1.000     H          0.137116  
         H4        1.0000    0.01100   0.48390   0.69940   Biso      1.000     H          0.137117  
         H5        1.0000    0.48390   0.69940   0.01100   Biso      1.000     H          0.13772   
         H6        1.0000    0.69940   0.01100   0.48390   Biso      1.000     H          0.137257  
         H7        1.0000    0.30060   0.51610   0.98900   Biso      1.000     H          0.137256  
         H8        1.0000    0.69940   0.48390   0.01100   Biso      1.000     H          0.137257  
         H9        1.0000    0.48390   0.01100   0.69940   Biso      1.000     H          0.13772   
         H10       1.0000    0.02430   0.73350   0.73350   Biso      1.000     H          0.134688  
         H11       1.0000    0.97570   0.26650   0.26650   Biso      1.000     H          0.134688  
         H12       1.0000    0.26650   0.26650   0.97570   Biso      1.000     H          0.13529   
         H13       1.0000    0.26650   0.97570   0.26650   Biso      1.000     H          0.135291  
         H14       1.0000    0.73350   0.73350   0.02430   Biso      1.000     H          0.13529   
         H15       1.0000    0.51610   0.30060   0.98900   Biso      1.000     H          0.13772   
         H16       1.0000    0.98900   0.51610   0.30060   Biso      1.000     H          0.137116  
         H17       1.0000    0.01100   0.69940   0.48390   Biso      1.000     H          0.137117  
         H18       1.0000    0.30060   0.98900   0.51610   Biso      1.000     H          0.137256  
         O1        1.0000    0.48322   0.00504   0.85904   Biso      1.000     O          -0.538471           
         O2        1.0000    0.38217   0.12052   0.97628   Biso      1.000     O          -0.516148           
         O3        1.0000    0.51678   0.14096   0.99496   Biso      1.000     O          -0.538471           
         O4        1.0000    0.97628   0.38217   0.12052   Biso      1.000     O          -0.523977           
         O5        1.0000    0.99496   0.51678   0.14096   Biso      1.000     O          -0.546621           
         O6        1.0000    0.02372   0.87948   0.61783   Biso      1.000     O          -0.523978           
         O7        1.0000    0.00504   0.85904   0.48322   Biso      1.000     O          -0.546623           
         O8        1.0000    0.87948   0.61783   0.02372   Biso      1.000     O          -0.523751           
         O9        1.0000    0.85904   0.48322   0.00504   Biso      1.000     O          -0.546463           
         O10       1.0000    0.61783   0.02372   0.87948   Biso      1.000     O          -0.516148           
         O11       1.0000    0.87948   0.02372   0.61783   Biso      1.000     O          -0.523752           
         O12       1.0000    0.51678   0.99496   0.14096   Biso      1.000     O          -0.53847  
         O13       1.0000    0.61783   0.87948   0.02372   Biso      1.000     O          -0.516148           
         O14       1.0000    0.48322   0.85904   0.00504   Biso      1.000     O          -0.538471           
         O15       1.0000    0.02372   0.61783   0.87948   Biso      1.000     O          -0.523977           
         O16       1.0000    0.00504   0.48322   0.85904   Biso      1.000     O          -0.546622           
         O17       1.0000    0.97628   0.12052   0.38217   Biso      1.000     O          -0.523978           
         O18       1.0000    0.99496   0.14096   0.51678   Biso      1.000     O          -0.546622           
         O19       1.0000    0.12052   0.38217   0.97628   Biso      1.000     O          -0.523751           
         O20       1.0000    0.14096   0.51678   0.99496   Biso      1.000     O          -0.546463           
         O21       1.0000    0.38217   0.97628   0.12052   Biso      1.000     O          -0.516148           
         O22       1.0000    0.14096   0.99496   0.51678   Biso      1.000     O          -0.546462           
         O23       1.0000    0.85904   0.00504   0.48322   Biso      1.000     O          -0.546463           
         O24       1.0000    0.12052   0.97628   0.38217   Biso      1.000     O          -0.523752 