
##########################################################################
#               Crystallographic Information Format file
#               Produced by PyCifRW module
#
#  This is a CIF file.  CIF has been adopted by the International
#  Union of Crystallography as the standard for data archiving and
#  transmission.
#
#  For information on this file format, follow the CIF links at
#  http://www.iucr.org
##########################################################################

data_image0

_cell_length_a                          9.6784
_cell_length_b                          11.058
_cell_length_c                          11.385
_cell_angle_alpha                       105.11
_cell_angle_beta                        90.23
_cell_angle_gamma                       113.98
_symmetry_space_group_name_H-M          'P 1'
_symmetry_int_tables_number             1
loop_
  _symmetry_equiv_pos_as_xyz
         'x, y, z' 
loop_
  _atom_site_label
  _atom_site_occupancy
  _atom_site_fract_x
  _atom_site_fract_y
  _atom_site_fract_z
  _atom_site_thermal_displace_type
  _atom_site_B_iso_or_equiv
  _atom_site_type_symbol
  _atom_site_charge
         C1        1.0000    0.77370   0.50300   0.39580   Biso      1.000     C          0.589196  
         C2        1.0000    0.49620   0.87110   0.44600   Biso      1.000     C          -0.123476           
         C3        1.0000    0.24620   0.03010   0.61630   Biso      1.000     C          0.5901310000000001  
         C4        1.0000    0.37830   0.01190   0.55860   Biso      1.000     C          0.015052000000000001          
         C5        1.0000    0.37380   0.88150   0.50510   Biso      1.000     C          -0.017536000000000003         
         C6        1.0000    0.24480   0.74830   0.51150   Biso      1.000     C          0.65035   
         C7        1.0000    0.50320   0.60900   0.59460   Biso      1.000     C          -0.112569           
         C8        1.0000    0.22260   0.25130   0.39270   Biso      1.000     C          0.624575  
         C9        1.0000    0.36210   0.38320   0.45050   Biso      1.000     C          -0.038702999999999994         
         C10       1.0000    0.36420   0.49370   0.54620   Biso      1.000     C          -0.037610000000000005         
         C11       1.0000    0.22630   0.49700   0.60420   Biso      1.000     C          0.5946670000000001  
         C12       1.0000    0.40390   0.06280   0.04270   Biso      1.000     C          0.009935  
         C13       1.0000    0.29670   0.12470   0.09650   Biso      1.000     C          0.582024  
         C14       1.0000    0.44360   0.87330   0.90870   Biso      1.000     C          -0.11719600000000001          
         C15       1.0000    0.18600   0.87190   0.89090   Biso      1.000     C          0.659567  
         C16       1.0000    0.55640   0.12670   0.09130   Biso      1.000     C          -0.11515999999999998          
         C17       1.0000    0.34750   0.93650   0.95110   Biso      1.000     C          -0.010611           
         C18       1.0000    0.81400   0.12810   0.10910   Biso      1.000     C          0.652776  
         C19       1.0000    0.63580   0.50630   0.45380   Biso      1.000     C          -0.023938           
         C20       1.0000    0.63790   0.61680   0.54950   Biso      1.000     C          -0.023339           
         C21       1.0000    0.77740   0.74870   0.60730   Biso      1.000     C          0.6255539999999999  
         C22       1.0000    0.49680   0.39100   0.40540   Biso      1.000     C          -0.112147           
         C23       1.0000    0.59610   0.93720   0.95730   Biso      1.000     C          0.009602  
         C24       1.0000    0.75520   0.25170   0.48850   Biso      1.000     C          0.636251  
         C25       1.0000    0.62620   0.11850   0.49490   Biso      1.000     C          -0.02065  
         C26       1.0000    0.62170   0.98810   0.44140   Biso      1.000     C          0.007234999999999999          
         C27       1.0000    0.75380   0.96990   0.38370   Biso      1.000     C          0.559028  
         C28       1.0000    0.50380   0.12890   0.55400   Biso      1.000     C          -0.120452           
         C29       1.0000    0.65250   0.06350   0.04890   Biso      1.000     C          -0.011993           
         C30       1.0000    0.70330   0.87530   0.90350   Biso      1.000     C          0.617767  
         H1        1.0000    0.49330   0.78440   0.40920   Biso      1.000     H          0.135474  
         H2        1.0000    0.49540   0.31810   0.34140   Biso      1.000     H          0.129201  
         H3        1.0000    0.50460   0.68190   0.65860   Biso      1.000     H          0.127567  
         H4        1.0000    0.59420   0.21110   0.15180   Biso      1.000     H          0.144143  
         H5        1.0000    0.40580   0.78890   0.84820   Biso      1.000     H          0.14418399999999998           
         H6        1.0000    0.50670   0.21560   0.59080   Biso      1.000     H          0.137629  
         Nd1       1.0000    0.00011   0.00530   0.74604   Biso      1.000     Nd          2.065162  
         Nd2       1.0000    0.02094   0.42555   0.32470   Biso      1.000     Nd          2.113132  
         O1        1.0000    0.09850   0.44400   0.53500   Biso      1.000     O          -0.720016           
         O2        1.0000    0.23910   0.55500   0.71490   Biso      1.000     O          -0.532276           
         O3        1.0000    0.11180   0.25130   0.33020   Biso      1.000     O          -0.7214149999999999           
         O4        1.0000    0.22170   0.14010   0.39980   Biso      1.000     O          -0.5471560000000001           
         O5        1.0000    0.18940   0.74240   0.60910   Biso      1.000     O          -0.538081           
         O6        1.0000    0.20980   0.64960   0.41330   Biso      1.000     O          -0.7109989999999999           
         O7        1.0000    0.26850   0.12420   0.71480   Biso      1.000     O          -0.623479           
         O8        1.0000    0.11210   0.74270   0.86820   Biso      1.000     O          -0.5703189999999999           
         O9        1.0000    0.13500   0.95040   0.86620   Biso      1.000     O          -0.657892           
         O10       1.0000    0.11010   0.94690   0.56830   Biso      1.000     O          -0.621537           
         O11       1.0000    0.81880   0.95590   0.86540   Biso      1.000     O          -0.716535           
         O12       1.0000    0.32940   0.24700   0.10230   Biso      1.000     O          -0.394648           
         O13       1.0000    0.67060   0.75300   0.89770   Biso      1.000     O          -0.396482           
         O14       1.0000    0.86500   0.04960   0.13380   Biso      1.000     O          -0.576439           
         O15       1.0000    0.88790   0.25730   0.13180   Biso      1.000     O          -0.677297           
         O16       1.0000    0.73150   0.87580   0.28520   Biso      1.000     O          -0.504706           
         O17       1.0000    0.88990   0.05310   0.43170   Biso      1.000     O          -0.5306   
         O18       1.0000    0.79020   0.35040   0.58670   Biso      1.000     O          -0.591101           
         O19       1.0000    0.81060   0.25760   0.39090   Biso      1.000     O          -0.596471           
         O20       1.0000    0.77830   0.85990   0.60020   Biso      1.000     O          -0.601504           
         O21       1.0000    0.88820   0.74870   0.66980   Biso      1.000     O          -0.663284           
         O22       1.0000    0.76090   0.44500   0.28510   Biso      1.000     O          -0.581717           
         O23       1.0000    0.90150   0.55600   0.46500   Biso      1.000     O          -0.6972659999999999           
         O24       1.0000    0.18120   0.04410   0.13460   Biso      1.000     O          -0.595638           
         Yb1       1.0000    0.97906   0.57445   0.67530   Biso      1.000     Yb          1.421517  
         Yb2       1.0000    0.99989   0.99470   0.25396   Biso      1.000     Yb          1.410518 