
##########################################################################
#               Crystallographic Information Format file
#               Produced by PyCifRW module
#
#  This is a CIF file.  CIF has been adopted by the International
#  Union of Crystallography as the standard for data archiving and
#  transmission.
#
#  For information on this file format, follow the CIF links at
#  http://www.iucr.org
##########################################################################

data_image0

_cell_length_a                          11.2149
_cell_length_b                          17.0025
_cell_length_c                          20.3176
_cell_angle_alpha                       65.2652
_cell_angle_beta                        87.9489
_cell_angle_gamma                       85.093
_symmetry_space_group_name_H-M          'P 1'
_symmetry_int_tables_number             1
loop_
  _symmetry_equiv_pos_as_xyz
         'x, y, z' 
loop_
  _atom_site_label
  _atom_site_occupancy
  _atom_site_fract_x
  _atom_site_fract_y
  _atom_site_fract_z
  _atom_site_thermal_displace_type
  _atom_site_B_iso_or_equiv
  _atom_site_type_symbol
  _atom_site_charge
         C1        1.0000    0.53740   0.91940   0.67420   Biso      1.000     C          0.283208  
         C2        1.0000    0.55120   0.71597   0.36146   Biso      1.000     C          -0.193027           
         C3        1.0000    0.46660   0.71274   0.41292   Biso      1.000     C          0.093136  
         C4        1.0000    0.68780   0.83313   0.11294   Biso      1.000     C          0.097372  
         C5        1.0000    0.60780   0.83633   0.16434   Biso      1.000     C          -0.166626           
         C6        1.0000    0.63790   0.79205   0.23750   Biso      1.000     C          0.111884  
         C7        1.0000    0.75020   0.74916   0.25328   Biso      1.000     C          -0.193899           
         C8        1.0000    0.82540   0.74988   0.19824   Biso      1.000     C          0.10061   
         C9        1.0000    0.23590   0.71177   0.93546   Biso      1.000     C          0.104808  
         C10       1.0000    0.19380   0.64108   0.93124   Biso      1.000     C          -0.180178           
         C11       1.0000    0.27100   0.58145   0.91810   Biso      1.000     C          0.105209  
         C12       1.0000    0.39100   0.60001   0.90698   Biso      1.000     C          -0.195918           
         C13       1.0000    0.42600   0.67270   0.91220   Biso      1.000     C          0.097863  
         C14       1.0000    0.36910   0.74494   0.07892   Biso      1.000     C          0.553035  
         C15       1.0000    0.12160   0.76149   0.13808   Biso      1.000     C          0.607173  
         C16       1.0000    0.34180   0.69911   0.15818   Biso      1.000     C          -0.040051           
         C17       1.0000    0.43350   0.64913   0.20594   Biso      1.000     C          -0.135246           
         C18       1.0000    0.41160   0.60691   0.27878   Biso      1.000     C          -0.077369           
         C19       1.0000    0.29890   0.61197   0.30546   Biso      1.000     C          -0.198483           
         C20       1.0000    0.20640   0.66023   0.25834   Biso      1.000     C          0.222558  
         C21       1.0000    0.22550   0.70599   0.18456   Biso      1.000     C          -0.116863           
         C22       1.0000    0.03740   0.59360   0.32580   Biso      1.000     C          0.282683  
         C23       1.0000    0.55130   0.78882   0.29556   Biso      1.000     C          0.100797  
         C24       1.0000    0.97370   0.59051   0.38458   Biso      1.000     C          -0.224124           
         C25       1.0000    0.46650   0.85668   0.28604   Biso      1.000     C          -0.166849           
         C26       1.0000    0.35640   0.81917   0.54866   Biso      1.000     C          0.553434  
         C27       1.0000    0.86210   0.97045   0.23750   Biso      1.000     C          0.11178   
         C28       1.0000    0.74980   0.99756   0.25328   Biso      1.000     C          -0.192626           
         C29       1.0000    0.67460   0.05188   0.19824   Biso      1.000     C          0.100523  
         C30       1.0000    0.26410   0.35277   0.93546   Biso      1.000     C          0.104091  
         C31       1.0000    0.30620   0.42768   0.93124   Biso      1.000     C          -0.178061           
         C32       1.0000    0.22900   0.50045   0.91810   Biso      1.000     C          0.103907  
         C33       1.0000    0.10900   0.49301   0.90698   Biso      1.000     C          -0.194281           
         C34       1.0000    0.07400   0.41510   0.91220   Biso      1.000     C          0.09728   
         C35       1.0000    0.86910   0.82386   0.92108   Biso      1.000     C          0.55293   
         C36       1.0000    0.62160   0.89957   0.86192   Biso      1.000     C          0.606207  
         C37       1.0000    0.84180   0.85729   0.84182   Biso      1.000     C          -0.039458           
         C38       1.0000    0.93350   0.85507   0.79406   Biso      1.000     C          -0.136034           
         C39       1.0000    0.91160   0.88569   0.72122   Biso      1.000     C          -0.07797  
         C40       1.0000    0.79890   0.91743   0.69454   Biso      1.000     C          -0.197818           
         C41       1.0000    0.70640   0.91857   0.74166   Biso      1.000     C          0.222638  
         C42       1.0000    0.72550   0.89055   0.81544   Biso      1.000     C          -0.116825           
         C43       1.0000    0.47370   0.97509   0.61542   Biso      1.000     C          -0.224123           
         C44       1.0000    0.41270   0.94250   0.57420   Biso      1.000     C          -0.091929           
         C45       1.0000    0.41810   0.85469   0.59302   Biso      1.000     C          -0.033383           
         C46       1.0000    0.48150   0.79952   0.65436   Biso      1.000     C          -0.084993           
         C47       1.0000    0.53960   0.83164   0.69612   Biso      1.000     C          -0.232644           
         C48       1.0000    0.38620   0.84871   0.34098   Biso      1.000     C          0.087265  
         C49       1.0000    0.91270   0.51670   0.42580   Biso      1.000     C          -0.092561           
         C50       1.0000    0.91810   0.44771   0.40698   Biso      1.000     C          -0.032593           
         C51       1.0000    0.98150   0.45388   0.34564   Biso      1.000     C          -0.084168           
         C52       1.0000    0.52630   0.02491   0.38458   Biso      1.000     C          -0.224129           
         C53       1.0000    0.58730   0.05750   0.42580   Biso      1.000     C          -0.091913           
         C54       1.0000    0.58190   0.14531   0.40698   Biso      1.000     C          -0.033368           
         C55       1.0000    0.51850   0.20048   0.34564   Biso      1.000     C          -0.084973           
         C56       1.0000    0.46040   0.16836   0.30388   Biso      1.000     C          -0.232666           
         C57       1.0000    0.64360   0.18083   0.45134   Biso      1.000     C          0.553427  
         C58       1.0000    0.61380   0.15129   0.65902   Biso      1.000     C          0.087278  
         C59       1.0000    0.53350   0.14332   0.71396   Biso      1.000     C          -0.166825           
         C60       1.0000    0.44870   0.21118   0.70444   Biso      1.000     C          0.10077   
         C61       1.0000    0.44880   0.28403   0.63854   Biso      1.000     C          -0.193034           
         C62       1.0000    0.53340   0.28726   0.58708   Biso      1.000     C          0.093137  
         C63       1.0000    0.31220   0.16687   0.88706   Biso      1.000     C          0.097383  
         C64       1.0000    0.39220   0.16367   0.83566   Biso      1.000     C          -0.166602           
         C65       1.0000    0.36210   0.20795   0.76250   Biso      1.000     C          0.111927  
         C66       1.0000    0.24980   0.25084   0.74672   Biso      1.000     C          -0.193876           
         C67       1.0000    0.17460   0.25012   0.80176   Biso      1.000     C          0.100622  
         C68       1.0000    0.76410   0.28823   0.06454   Biso      1.000     C          0.10478   
         C69       1.0000    0.80620   0.35892   0.06876   Biso      1.000     C          -0.180195           
         C70       1.0000    0.72900   0.41855   0.08190   Biso      1.000     C          0.105278  
         C71       1.0000    0.60900   0.39999   0.09302   Biso      1.000     C          -0.195899           
         C72       1.0000    0.57400   0.32730   0.08780   Biso      1.000     C          0.097852  
         C73       1.0000    0.46260   0.08060   0.32580   Biso      1.000     C          0.283206  
         C74       1.0000    0.27450   0.10945   0.18456   Biso      1.000     C          -0.116818           
         C75       1.0000    0.29360   0.08143   0.25834   Biso      1.000     C          0.222661  
         C76       1.0000    0.20110   0.08257   0.30546   Biso      1.000     C          -0.197775           
         C77       1.0000    0.03960   0.52776   0.30388   Biso      1.000     C          -0.232556           
         C78       1.0000    0.85640   0.36783   0.45134   Biso      1.000     C          0.552508  
         C79       1.0000    0.88620   0.18969   0.65902   Biso      1.000     C          0.088914  
         C80       1.0000    0.96650   0.14272   0.71396   Biso      1.000     C          -0.166443           
         C81       1.0000    0.05130   0.08438   0.70444   Biso      1.000     C          0.10004   
         C82       1.0000    0.05120   0.07743   0.63854   Biso      1.000     C          -0.194238           
         C83       1.0000    0.96660   0.12566   0.58708   Biso      1.000     C          0.096263  
         C84       1.0000    0.18780   0.94607   0.88706   Biso      1.000     C          0.095495  
         C85       1.0000    0.10780   0.00067   0.83566   Biso      1.000     C          -0.166622           
         C86       1.0000    0.13790   0.02955   0.76250   Biso      1.000     C          0.111745  
         C87       1.0000    0.81220   0.05393   0.11294   Biso      1.000     C          0.095504  
         C88       1.0000    0.25020   0.00244   0.74672   Biso      1.000     C          -0.192648           
         C89       1.0000    0.73590   0.64723   0.06454   Biso      1.000     C          0.104102  
         C90       1.0000    0.69380   0.57232   0.06876   Biso      1.000     C          -0.17806  
         C91       1.0000    0.77100   0.49955   0.08190   Biso      1.000     C          0.103826  
         C92       1.0000    0.89100   0.50699   0.09302   Biso      1.000     C          -0.194317           
         C93       1.0000    0.92600   0.58490   0.08780   Biso      1.000     C          0.097271  
         C94       1.0000    0.13090   0.17614   0.07892   Biso      1.000     C          0.552941  
         C95       1.0000    0.37840   0.10043   0.13808   Biso      1.000     C          0.606179  
         C96       1.0000    0.15820   0.14271   0.15818   Biso      1.000     C          -0.039469           
         C97       1.0000    0.06650   0.14493   0.20594   Biso      1.000     C          -0.136008           
         C98       1.0000    0.08840   0.11431   0.27878   Biso      1.000     C          -0.077931           
         C99       1.0000    0.32540   0.94812   0.80176   Biso      1.000     C          0.100511  
         C100      1.0000    0.03340   0.87434   0.41292   Biso      1.000     C          0.096256  
         C101      1.0000    0.89220   0.99933   0.16434   Biso      1.000     C          -0.166599           
         C102      1.0000    0.94870   0.91562   0.29556   Biso      1.000     C          0.100014  
         C103      1.0000    0.94880   0.92257   0.36146   Biso      1.000     C          -0.194242           
         C104      1.0000    0.63090   0.25506   0.92108   Biso      1.000     C          0.553041  
         C105      1.0000    0.65820   0.30089   0.84182   Biso      1.000     C          -0.040053           
         C106      1.0000    0.56650   0.35087   0.79406   Biso      1.000     C          -0.135231           
         C107      1.0000    0.58840   0.39309   0.72122   Biso      1.000     C          -0.077333           
         C108      1.0000    0.70110   0.38803   0.69454   Biso      1.000     C          -0.198438           
         C109      1.0000    0.79360   0.33977   0.74166   Biso      1.000     C          0.222583  
         C110      1.0000    0.77450   0.29401   0.81544   Biso      1.000     C          -0.116862           
         C111      1.0000    0.96260   0.40640   0.67420   Biso      1.000     C          0.282667  
         C112      1.0000    0.87840   0.23851   0.86192   Biso      1.000     C          0.607156  
         C113      1.0000    0.08730   0.48330   0.57420   Biso      1.000     C          -0.092546           
         C114      1.0000    0.08190   0.55229   0.59302   Biso      1.000     C          -0.032575           
         C115      1.0000    0.01850   0.54612   0.65436   Biso      1.000     C          -0.084153           
         C116      1.0000    0.96040   0.47224   0.69612   Biso      1.000     C          -0.232579           
         C117      1.0000    0.14360   0.63217   0.54866   Biso      1.000     C          0.552499  
         C118      1.0000    0.11380   0.81031   0.34098   Biso      1.000     C          0.088929  
         C119      1.0000    0.03350   0.85728   0.28604   Biso      1.000     C          -0.166419           
         C120      1.0000    0.02630   0.40949   0.61542   Biso      1.000     C          -0.224116           
         H1        1.0000    0.78420   0.93810   0.64520   Biso      1.000     H          0.137139  
         H2        1.0000    0.47040   0.03460   0.60240   Biso      1.000     H          0.136196  
         H3        1.0000    0.36840   0.98050   0.53400   Biso      1.000     H          0.116225  
         H4        1.0000    0.48530   0.73990   0.66800   Biso      1.000     H          0.118641  
         H5        1.0000    0.57940   0.79390   0.73840   Biso      1.000     H          0.134058  
         H6        1.0000    0.33110   0.89540   0.33440   Biso      1.000     H          0.091448  
         H7        1.0000    0.46360   0.90690   0.24320   Biso      1.000     H          0.138546  
         H8        1.0000    0.53390   0.86780   0.15060   Biso      1.000     H          0.148741  
         H9        1.0000    0.46750   0.66320   0.45640   Biso      1.000     H          0.106391  
         H10       1.0000    0.66570   0.86250   0.06440   Biso      1.000     H          0.110697  
         H11       1.0000    0.77510   0.71980   0.30120   Biso      1.000     H          0.125216  
         H12       1.0000    0.90080   0.72050   0.21060   Biso      1.000     H          0.090049  
         H13       1.0000    0.18130   0.75110   0.94360   Biso      1.000     H          0.105795  
         H14       1.0000    0.11250   0.63300   0.93720   Biso      1.000     H          0.129936  
         H15       1.0000    0.97370   0.88490   0.68980   Biso      1.000     H          0.112947  
         H16       1.0000    0.60830   0.66970   0.37060   Biso      1.000     H          0.129458  
         H17       1.0000    0.01010   0.83250   0.81180   Biso      1.000     H          0.113562  
         H18       1.0000    0.03250   0.88040   0.45640   Biso      1.000     H          0.105715  
         H19       1.0000    0.05330   0.54040   0.89620   Biso      1.000     H          0.133313  
         H20       1.0000    0.48990   0.35570   0.81180   Biso      1.000     H          0.113765  
         H21       1.0000    0.52630   0.42530   0.68980   Biso      1.000     H          0.112036  
         H22       1.0000    0.71580   0.41670   0.64520   Biso      1.000     H          0.137695  
         H23       1.0000    0.02960   0.36300   0.60240   Biso      1.000     H          0.136695  
         H24       1.0000    0.13160   0.48550   0.53400   Biso      1.000     H          0.116699  
         H25       1.0000    0.01470   0.59210   0.66800   Biso      1.000     H          0.117772  
         H26       1.0000    0.92060   0.46770   0.73840   Biso      1.000     H          0.133674  
         H27       1.0000    0.16890   0.77020   0.33440   Biso      1.000     H          0.090808  
         H28       1.0000    0.03640   0.84990   0.24320   Biso      1.000     H          0.138512  
         H29       1.0000    0.89170   0.95970   0.37060   Biso      1.000     H          0.130051  
         H30       1.0000    0.44670   0.56340   0.89620   Biso      1.000     H          0.133639  
         H31       1.0000    0.83430   0.07310   0.06440   Biso      1.000     H          0.111493  
         H32       1.0000    0.96610   0.98160   0.15060   Biso      1.000     H          0.149065  
         H33       1.0000    0.72490   0.97900   0.30120   Biso      1.000     H          0.124849  
         H34       1.0000    0.59920   0.06890   0.21060   Biso      1.000     H          0.089511  
         H35       1.0000    0.31870   0.30530   0.94360   Biso      1.000     H          0.105266  
         H36       1.0000    0.38750   0.42980   0.93720   Biso      1.000     H          0.129605  
         H37       1.0000    0.99390   0.41180   0.90400   Biso      1.000     H          0.103854  
         H38       1.0000    0.50610   0.68420   0.90400   Biso      1.000     H          0.103799  
         H39       1.0000    0.86840   0.51450   0.46600   Biso      1.000     H          0.116685  
         H40       1.0000    0.47370   0.57470   0.31020   Biso      1.000     H          0.112003  
         H41       1.0000    0.63160   0.01950   0.46600   Biso      1.000     H          0.116236  
         H42       1.0000    0.51470   0.26010   0.33200   Biso      1.000     H          0.118651  
         H43       1.0000    0.42060   0.20610   0.26160   Biso      1.000     H          0.13406   
         H44       1.0000    0.51010   0.64430   0.18820   Biso      1.000     H          0.113756  
         H45       1.0000    0.53640   0.09310   0.75680   Biso      1.000     H          0.138561  
         H46       1.0000    0.39170   0.33030   0.62940   Biso      1.000     H          0.129458  
         H47       1.0000    0.53250   0.33680   0.54360   Biso      1.000     H          0.106397  
         H48       1.0000    0.33430   0.13750   0.93560   Biso      1.000     H          0.110696  
         H49       1.0000    0.46610   0.13220   0.84940   Biso      1.000     H          0.14876   
         H50       1.0000    0.22490   0.28020   0.69880   Biso      1.000     H          0.125233  
         H51       1.0000    0.09920   0.27950   0.78940   Biso      1.000     H          0.090047  
         H52       1.0000    0.81870   0.24890   0.05640   Biso      1.000     H          0.105776  
         H53       1.0000    0.88750   0.36700   0.06280   Biso      1.000     H          0.12994   
         H54       1.0000    0.55330   0.43660   0.10380   Biso      1.000     H          0.133659  
         H55       1.0000    0.49390   0.31580   0.09600   Biso      1.000     H          0.103798  
         H56       1.0000    0.52960   0.96540   0.39760   Biso      1.000     H          0.136207  
         H57       1.0000    0.21580   0.06190   0.35480   Biso      1.000     H          0.137168  
         H58       1.0000    0.66890   0.10460   0.66560   Biso      1.000     H          0.091465  
         H59       1.0000    0.98990   0.16750   0.18820   Biso      1.000     H          0.113574  
         H60       1.0000    0.28420   0.58330   0.35480   Biso      1.000     H          0.137666  
         H61       1.0000    0.97040   0.63700   0.39760   Biso      1.000     H          0.136684  
         H62       1.0000    0.02630   0.11510   0.31020   Biso      1.000     H          0.11298   
         H63       1.0000    0.07940   0.53230   0.26160   Biso      1.000     H          0.133674  
         H64       1.0000    0.83110   0.22980   0.66560   Biso      1.000     H          0.090791  
         H65       1.0000    0.96360   0.15010   0.75680   Biso      1.000     H          0.138495  
         H66       1.0000    0.10830   0.04030   0.62940   Biso      1.000     H          0.130051  
         H67       1.0000    0.96750   0.11960   0.54360   Biso      1.000     H          0.10571   
         H68       1.0000    0.98530   0.40790   0.33200   Biso      1.000     H          0.117764  
         H69       1.0000    0.03390   0.01840   0.84940   Biso      1.000     H          0.149047  
         H70       1.0000    0.27510   0.02100   0.69880   Biso      1.000     H          0.124832  
         H71       1.0000    0.40080   0.93110   0.78940   Biso      1.000     H          0.089511  
         H72       1.0000    0.68130   0.69470   0.05640   Biso      1.000     H          0.105272  
         H73       1.0000    0.61250   0.57020   0.06280   Biso      1.000     H          0.129589  
         H74       1.0000    0.94670   0.45960   0.10380   Biso      1.000     H          0.133279  
         H75       1.0000    0.00610   0.58820   0.09600   Biso      1.000     H          0.103841  
         H76       1.0000    0.16570   0.92690   0.93560   Biso      1.000     H          0.111494  
         N1        1.0000    0.38310   0.77765   0.40324   Biso      1.000     N          -0.212448           
         N2        1.0000    0.14820   0.34379   0.92844   Biso      1.000     N          -0.188547           
         N3        1.0000    0.70340   0.08157   0.12842   Biso      1.000     N          -0.230126           
         N4        1.0000    0.11690   0.81911   0.40324   Biso      1.000     N          -0.215538           
         N5        1.0000    0.64820   0.27223   0.07156   Biso      1.000     N          -0.188663           
         N6        1.0000    0.29660   0.91843   0.87158   Biso      1.000     N          -0.230127           
         N7        1.0000    0.61690   0.22235   0.59676   Biso      1.000     N          -0.212437           
         N8        1.0000    0.85180   0.65621   0.07156   Biso      1.000     N          -0.188538           
         N9        1.0000    0.79660   0.79001   0.12842   Biso      1.000     N          -0.230998           
         N10       1.0000    0.88310   0.18089   0.59676   Biso      1.000     N          -0.215548           
         N11       1.0000    0.20340   0.20999   0.87158   Biso      1.000     N          -0.231034           
         N12       1.0000    0.35180   0.72777   0.92844   Biso      1.000     N          -0.188625           
         Ni1       1.0000    0.09149   0.22184   0.95052   Biso      1.000     Ni          0.724679  
         Ni2       1.0000    0.75000   0.23927   0.52146   Biso      1.000     Ni          0.69825   
         Ni3       1.0000    0.25000   0.76073   0.47854   Biso      1.000     Ni          0.698249  
         Ni4       1.0000    0.59149   0.17236   0.04948   Biso      1.000     Ni          0.724577  
         Ni5       1.0000    0.90851   0.77816   0.04948   Biso      1.000     Ni          0.724354  
         Ni6       1.0000    0.40851   0.82764   0.95052   Biso      1.000     Ni          0.724439  
         O1        1.0000    0.46960   0.73062   0.05478   Biso      1.000     O          -0.537333           
         O2        1.0000    0.10520   0.83808   0.13160   Biso      1.000     O          -0.570047           
         O3        1.0000    0.05522   0.72361   0.11312   Biso      1.000     O          -0.581427           
         O4        1.0000    0.09170   0.66951   0.28462   Biso      1.000     O          -0.238978           
         O5        1.0000    0.87650   0.30028   0.43986   Biso      1.000     O          -0.534325           
         O6        1.0000    0.03040   0.21460   0.05478   Biso      1.000     O          -0.537235           
         O7        1.0000    0.21052   0.16525   0.03734   Biso      1.000     O          -0.497963           
         O8        1.0000    0.28948   0.79741   0.03734   Biso      1.000     O          -0.498252           
         O9        1.0000    0.39480   0.03032   0.13160   Biso      1.000     O          -0.570328           
         O10       1.0000    0.44478   0.16327   0.11312   Biso      1.000     O          -0.580221           
         O11       1.0000    0.40830   0.04587   0.28462   Biso      1.000     O          -0.238841           
         O12       1.0000    0.78290   0.36711   0.50032   Biso      1.000     O          -0.549802           
         O13       1.0000    0.28290   0.86743   0.49968   Biso      1.000     O          -0.549951           
         O14       1.0000    0.59170   0.95413   0.71538   Biso      1.000     O          -0.238848           
         O15       1.0000    0.62350   0.25986   0.43986   Biso      1.000     O          -0.53488  
         O16       1.0000    0.55522   0.83673   0.88688   Biso      1.000     O          -0.580309           
         O17       1.0000    0.60520   0.96968   0.86840   Biso      1.000     O          -0.570448           
         O18       1.0000    0.96960   0.78540   0.94522   Biso      1.000     O          -0.537298           
         O19       1.0000    0.78948   0.83475   0.96266   Biso      1.000     O          -0.498012           
         O20       1.0000    0.21710   0.63289   0.49968   Biso      1.000     O          -0.549784           
         O21       1.0000    0.12350   0.69972   0.56014   Biso      1.000     O          -0.534317           
         O22       1.0000    0.90830   0.33049   0.71538   Biso      1.000     O          -0.238973           
         O23       1.0000    0.94478   0.27639   0.88688   Biso      1.000     O          -0.581395           
         O24       1.0000    0.89480   0.16192   0.86840   Biso      1.000     O          -0.569928           
         O25       1.0000    0.53040   0.26938   0.94522   Biso      1.000     O          -0.537247           
         O26       1.0000    0.71052   0.20259   0.96266   Biso      1.000     O          -0.498155           
         O27       1.0000    0.37650   0.74014   0.56014   Biso      1.000     O          -0.53489  
         O28       1.0000    0.71710   0.13257   0.50032   Biso      1.000     O          -0.549936 