
##########################################################################
#               Crystallographic Information Format file
#               Produced by PyCifRW module
#
#  This is a CIF file.  CIF has been adopted by the International
#  Union of Crystallography as the standard for data archiving and
#  transmission.
#
#  For information on this file format, follow the CIF links at
#  http://www.iucr.org
##########################################################################

data_image0

_cell_length_a                          4.3276
_cell_length_b                          17.3181
_cell_length_c                          6.7624
_cell_angle_alpha                       90
_cell_angle_beta                        90
_cell_angle_gamma                       90
_symmetry_space_group_name_H-M          'P 1'
_symmetry_int_tables_number             1
loop_
  _symmetry_equiv_pos_as_xyz
         'x, y, z' 
loop_
  _atom_site_label
  _atom_site_occupancy
  _atom_site_fract_x
  _atom_site_fract_y
  _atom_site_fract_z
  _atom_site_thermal_displace_type
  _atom_site_B_iso_or_equiv
  _atom_site_type_symbol
  _atom_site_charge
         C1        1.0000    0.50000   0.50000   0.42300   Biso      1.000     C          0.075613  
         C2        1.0000    0.63600   0.43710   0.54100   Biso      1.000     C          -0.16238699999999998          
         C3        1.0000    0.50000   0.00000   0.92300   Biso      1.000     C          0.07561699999999999           
         C4        1.0000    0.63600   0.06290   0.04100   Biso      1.000     C          -0.167742           
         C5        1.0000    0.36400   0.56290   0.54100   Biso      1.000     C          -0.167802           
         C6        1.0000    0.36400   0.93710   0.04100   Biso      1.000     C          -0.162329           
         Cu1       1.0000    0.99300   0.75670   0.72530   Biso      1.000     Cu          1.0559399999999999  
         Cu2       1.0000    0.00700   0.24330   0.72530   Biso      1.000     Cu          1.071583  
         Cu3       1.0000    0.99300   0.74330   0.22530   Biso      1.000     Cu          1.071497  
         Cu4       1.0000    0.00700   0.25670   0.22530   Biso      1.000     Cu          1.0560530000000001  
         O1        1.0000    0.71400   0.83730   0.80700   Biso      1.000     O          -0.697602           
         O2        1.0000    0.22600   0.71470   0.46200   Biso      1.000     O          -0.791407           
         O3        1.0000    0.67300   0.81360   0.18600   Biso      1.000     O          -0.7311479999999999           
         O4        1.0000    0.32700   0.31360   0.68600   Biso      1.000     O          -0.731173           
         O5        1.0000    0.77400   0.28530   0.46200   Biso      1.000     O          -0.78796  
         O6        1.0000    0.28600   0.33730   0.30700   Biso      1.000     O          -0.697657           
         O7        1.0000    0.28600   0.16270   0.80700   Biso      1.000     O          -0.7081310000000001           
         O8        1.0000    0.77400   0.21470   0.96200   Biso      1.000     O          -0.791442           
         O9        1.0000    0.32700   0.18640   0.18600   Biso      1.000     O          -0.733264           
         O10       1.0000    0.67300   0.68640   0.68600   Biso      1.000     O          -0.733211           
         O11       1.0000    0.22600   0.78530   0.96200   Biso      1.000     O          -0.787898           
         O12       1.0000    0.71400   0.66270   0.30700   Biso      1.000     O          -0.7080569999999999           
         P1        1.0000    0.47400   0.16030   0.99100   Biso      1.000     P          1.293433  
         P2        1.0000    0.52600   0.83970   0.99100   Biso      1.000     P          1.283005  
         P3        1.0000    0.52600   0.66030   0.49100   Biso      1.000     P          1.293417  
         P4        1.0000    0.47400   0.33970   0.49100   Biso      1.000     P          1.283053 