
##########################################################################
#               Crystallographic Information Format file
#               Produced by PyCifRW module
#
#  This is a CIF file.  CIF has been adopted by the International
#  Union of Crystallography as the standard for data archiving and
#  transmission.
#
#  For information on this file format, follow the CIF links at
#  http://www.iucr.org
##########################################################################

data_image0

_cell_length_a                          12.6539
_cell_length_b                          12.6539
_cell_length_c                          15.1151
_cell_angle_alpha                       90
_cell_angle_beta                        90
_cell_angle_gamma                       120
_symmetry_space_group_name_H-M          'P 1'
_symmetry_int_tables_number             1
loop_
  _symmetry_equiv_pos_as_xyz
         'x, y, z' 
loop_
  _atom_site_label
  _atom_site_occupancy
  _atom_site_fract_x
  _atom_site_fract_y
  _atom_site_fract_z
  _atom_site_thermal_displace_type
  _atom_site_B_iso_or_equiv
  _atom_site_type_symbol
  _atom_site_charge
         C1        1.0000    0.32658   0.68284   0.55619   Biso      1.000     C          -0.16985  
         C2        1.0000    0.26120   0.66742   0.64523   Biso      1.000     C          -0.105523           
         C3        1.0000    0.15448   0.69231   0.64627   Biso      1.000     C          -0.155207           
         C4        1.0000    0.19461   0.82108   0.61091   Biso      1.000     C          -0.163897           
         C5        1.0000    0.26613   0.84485   0.52246   Biso      1.000     C          -0.11793  
         C6        1.0000    0.36692   0.81036   0.51835   Biso      1.000     C          -0.154069           
         C7        1.0000    0.35993   0.75887   0.70371   Biso      1.000     C          0.627905  
         C8        1.0000    0.33425   0.73267   0.92571   Biso      1.000     C          0.651583  
         C9        1.0000    0.75898   0.86580   0.92209   Biso      1.000     C          0.125787  
         C10       1.0000    0.72902   0.83295   0.70137   Biso      1.000     C          0.646254  
         C11       1.0000    0.16451   0.76406   0.46157   Biso      1.000     C          0.636957  
         C12       1.0000    0.13430   0.75010   0.24735   Biso      1.000     C          0.582216  
         C13       1.0000    0.20635   0.78501   0.16502   Biso      1.000     C          -0.107464           
         C14       1.0000    0.10525   0.70278   0.09381   Biso      1.000     C          -0.161749           
         C15       1.0000    0.81395   0.82001   0.64005   Biso      1.000     C          -0.110822           
         C16       1.0000    0.78594   0.68725   0.64012   Biso      1.000     C          -0.148843           
         C17       1.0000    0.65661   0.59855   0.60590   Biso      1.000     C          -0.161779           
         C18       1.0000    0.62654   0.64442   0.51845   Biso      1.000     C          -0.107766           
         C19       1.0000    0.66677   0.78199   0.51487   Biso      1.000     C          -0.14926  
         C20       1.0000    0.79566   0.86796   0.55102   Biso      1.000     C          -0.164718           
         C21       1.0000    0.69687   0.61389   0.45433   Biso      1.000     C          0.611702  
         C22       1.0000    0.86134   0.30867   0.45814   Biso      1.000     C          0.636799  
         C23       1.0000    0.89193   0.35502   0.23520   Biso      1.000     C          0.626103  
         C24       1.0000    0.73223   0.60198   0.23204   Biso      1.000     C          0.618637  
         C25       1.0000    0.70295   0.64548   0.14971   Biso      1.000     C          -0.1061   
         C26       1.0000    0.74325   0.78073   0.16283   Biso      1.000     C          -0.151078           
         C27       1.0000    0.72705   0.83686   0.08026   Biso      1.000     C          -0.17548  
         C28       1.0000    0.83456   0.27992   0.15426   Biso      1.000     C          -0.105456           
         C29       1.0000    0.69982   0.18870   0.17287   Biso      1.000     C          -0.146591           
         C30       1.0000    0.64579   0.11543   0.08955   Biso      1.000     C          -0.16362  
         C31       1.0000    0.64623   0.19923   0.01489   Biso      1.000     C          -0.104136           
         C32       1.0000    0.84806   0.37731   0.08530   Biso      1.000     C          -0.1473   
         C33       1.0000    0.83373   0.21015   0.52388   Biso      1.000     C          -0.112839           
         C34       1.0000    0.69807   0.11056   0.52075   Biso      1.000     C          -0.15176  
         C35       1.0000    0.61301   0.15405   0.55740   Biso      1.000     C          -0.16769  
         C36       1.0000    0.66163   0.21775   0.64702   Biso      1.000     C          -0.107162           
         C37       1.0000    0.79119   0.32627   0.64531   Biso      1.000     C          -0.15396  
         C38       1.0000    0.87973   0.28636   0.61062   Biso      1.000     C          -0.161726           
         C39       1.0000    0.65314   0.12004   0.70824   Biso      1.000     C          0.638489  
         C40       1.0000    0.29971   0.74152   0.16925   Biso      1.000     C          -0.146717           
         C41       1.0000    0.36386   0.75684   0.08197   Biso      1.000     C          -0.151976           
         C42       1.0000    0.26574   0.68354   0.00846   Biso      1.000     C          -0.118582           
         C43       1.0000    0.79681   0.82325   0.00318   Biso      1.000     C          -0.017425           
         C44       1.0000    0.75921   0.68730   0.99130   Biso      1.000     C          -0.146366           
         C45       1.0000    0.64826   0.14057   0.93007   Biso      1.000     C          0.61881   
         C46       1.0000    0.75659   0.33227   0.00920   Biso      1.000     C          -0.129817           
         C47       1.0000    0.78240   0.63703   0.07497   Biso      1.000     C          -0.161328           
         C48       1.0000    0.16106   0.70703   0.00899   Biso      1.000     C          -0.230063           
         O1        1.0000    0.34300   0.83589   0.74694   Biso      1.000     O          -0.602696           
         O2        1.0000    0.36136   0.84356   0.90955   Biso      1.000     O          -0.631098           
         O3        1.0000    0.36574   0.66832   0.87666   Biso      1.000     O          -0.649763           
         O4        1.0000    0.64278   0.76673   0.90064   Biso      1.000     O          -0.636854           
         O5        1.0000    0.84177   0.91785   0.85343   Biso      1.000     O          -0.610241           
         O6        1.0000    0.74307   0.94037   0.71128   Biso      1.000     O          -0.637581           
         O7        1.0000    0.64223   0.73631   0.73586   Biso      1.000     O          -0.575479           
         O8        1.0000    0.08851   0.79900   0.43848   Biso      1.000     O          -0.625353           
         O9        1.0000    0.12885   0.65651   0.28490   Biso      1.000     O          -0.695004           
         O10       1.0000    0.05707   0.78652   0.26664   Biso      1.000     O          -0.614383           
         O11       1.0000    0.65584   0.50389   0.42571   Biso      1.000     O          -0.637562           
         O12       1.0000    0.81681   0.68860   0.27772   Biso      1.000     O          -0.689596           
         O13       1.0000    0.77927   0.33868   0.44482   Biso      1.000     O          -0.601813           
         O14       1.0000    0.97265   0.37047   0.42925   Biso      1.000     O          -0.672752           
         O15       1.0000    0.81687   0.37382   0.27986   Biso      1.000     O          -0.671393           
         O16       1.0000    0.00633   0.40789   0.25475   Biso      1.000     O          -0.645598           
         O17       1.0000    0.81015   0.69840   0.44496   Biso      1.000     O          -0.632157           
         O18       1.0000    0.68924   0.48872   0.25158   Biso      1.000     O          -0.616019           
         O19       1.0000    0.74260   0.13200   0.75388   Biso      1.000     O          -0.565066           
         O20       1.0000    0.46005   0.75642   0.70591   Biso      1.000     O          -0.6499   
         O21       1.0000    0.14924   0.65629   0.44799   Biso      1.000     O          -0.625591           
         O22       1.0000    0.57622   0.91080   0.85803   Biso      1.000     O          -1.183148           
         O23       1.0000    0.54489   0.02499   0.70990   Biso      1.000     O          -0.666115           
         O24       1.0000    0.93227   0.56202   0.39265   Biso      1.000     O          -1.184016           
         O25       1.0000    0.56335   0.12381   0.87086   Biso      1.000     O          -0.664439           
         O26       1.0000    0.73350   0.11596   0.92012   Biso      1.000     O          -0.596829           
         Ti1       1.0000    0.46928   0.96064   0.82499   Biso      1.000     Ti          1.843912  
         Ti2       1.0000    0.53024   0.74853   0.82271   Biso      1.000     Ti          1.740883  
         Ti3       1.0000    0.75288   0.00200   0.83446   Biso      1.000     Ti          1.609375  
         Ti4       1.0000    0.04993   0.52395   0.36431   Biso      1.000     Ti          1.876364  
         Ti5       1.0000    0.76438   0.45478   0.36194   Biso      1.000     Ti          1.594157  
         Ti6       1.0000    0.93534   0.70735   0.36634   Biso      1.000     Ti          1.668999  
         H1        1.0000    0.79594   0.66185   0.70858   Biso      1.000     H          0.094234  
         H2        1.0000    0.85536   0.68162   0.59965   Biso      1.000     H          0.083511  
         H3        1.0000    0.86604   0.87785   0.50407   Biso      1.000     H          0.093466  
         H4        1.0000    0.80783   0.95992   0.56364   Biso      1.000     H          0.087376  
         H5        1.0000    0.66164   0.80739   0.44537   Biso      1.000     H          0.085174  
         H6        1.0000    0.59993   0.79700   0.55223   Biso      1.000     H          0.092637  
         H7        1.0000    0.64623   0.50745   0.59296   Biso      1.000     H          0.084968  
         H8        1.0000    0.58737   0.58395   0.65553   Biso      1.000     H          0.1028    
         H9        1.0000    0.90571   0.88269   0.66711   Biso      1.000     H          0.105983  
         H10       1.0000    0.52735   0.58876   0.50611   Biso      1.000     H          0.094385  
         H11       1.0000    0.60526   0.58840   0.13144   Biso      1.000     H          0.091283  
         H12       1.0000    0.69588   0.79278   0.21956   Biso      1.000     H          0.078739  
         H13       1.0000    0.84119   0.82792   0.17993   Biso      1.000     H          0.100479  
         H14       1.0000    0.75829   0.93474   0.09028   Biso      1.000     H          0.075357  
         H15       1.0000    0.62983   0.79212   0.06084   Biso      1.000     H          0.084075  
         H16       1.0000    0.12029   0.68261   0.71503   Biso      1.000     H          0.094266  
         H17       1.0000    0.07847   0.62180   0.60700   Biso      1.000     H          0.087273  
         H18       1.0000    0.40693   0.67219   0.56893   Biso      1.000     H          0.087288  
         H19       1.0000    0.26672   0.61034   0.51063   Biso      1.000     H          0.081884  
         H20       1.0000    0.44945   0.87986   0.55372   Biso      1.000     H          0.093226  
         H21       1.0000    0.39425   0.81461   0.44812   Biso      1.000     H          0.084975  
         H22       1.0000    0.11350   0.83062   0.59777   Biso      1.000     H          0.090214  
         H23       1.0000    0.25026   0.89191   0.65965   Biso      1.000     H          0.097888  
         H24       1.0000    0.23435   0.57632   0.67358   Biso      1.000     H          0.098574  
         H25       1.0000    0.30318   0.94173   0.50397   Biso      1.000     H          0.096343  
         H26       1.0000    0.24628   0.88274   0.14829   Biso      1.000     H          0.096433  
         H27       1.0000    0.36655   0.78792   0.22307   Biso      1.000     H          0.082469  
         H28       1.0000    0.25043   0.64333   0.18629   Biso      1.000     H          0.094322  
         H29       1.0000    0.41726   0.85398   0.06230   Biso      1.000     H          0.083431  
         H30       1.0000    0.42780   0.72135   0.08619   Biso      1.000     H          0.083857  
         H31       1.0000    0.59621   0.24254   0.67556   Biso      1.000     H          0.095379  
         H32       1.0000    0.51946   0.07580   0.56713   Biso      1.000     H          0.088636  
         H33       1.0000    0.60643   0.21795   0.51183   Biso      1.000     H          0.090161  
         H34       1.0000    0.81797   0.36357   0.71314   Biso      1.000     H          0.091135  
         H35       1.0000    0.79212   0.39898   0.60476   Biso      1.000     H          0.085697  
         H36       1.0000    0.89475   0.23273   0.66123   Biso      1.000     H          0.100636  
         H37       1.0000    0.97009   0.36771   0.59668   Biso      1.000     H          0.084447  
         H38       1.0000    0.67328   0.07963   0.45112   Biso      1.000     H          0.082607  
         H39       1.0000    0.68548   0.02996   0.55886   Biso      1.000     H          0.092919  
         H40       1.0000    0.89278   0.17106   0.50923   Biso      1.000     H          0.094892  
         H41       1.0000    0.88399   0.23292   0.13249   Biso      1.000     H          0.093842  
         H42       1.0000    0.68965   0.12961   0.22979   Biso      1.000     H          0.085631  
         H43       1.0000    0.65184   0.23928   0.18985   Biso      1.000     H          0.097967  
         H44       1.0000    0.70097   0.07415   0.06860   Biso      1.000     H          0.090046  
         H45       1.0000    0.55068   0.04082   0.09922   Biso      1.000     H          0.08497   
         H46       1.0000    0.65982   0.63395   0.97810   Biso      1.000     H          0.085426  
         H47       1.0000    0.80368   0.67338   0.93297   Biso      1.000     H          0.090592  
         H48       1.0000    0.56043   0.20316   0.01809   Biso      1.000     H          0.084335  
         H49       1.0000    0.80608   0.34465   0.94657   Biso      1.000     H          0.088706  
         H50       1.0000    0.71913   0.39449   0.00145   Biso      1.000     H          0.080749  
         H51       1.0000    0.87840   0.69101   0.09645   Biso      1.000     H          0.086231  
         H52       1.0000    0.76237   0.54239   0.06544   Biso      1.000     H          0.080479  
         H53       1.0000    0.89707   0.87728   0.01367   Biso      1.000     H          0.077699  
         H54       1.0000    0.23931   0.58566   0.01520   Biso      1.000     H          0.08973   
         H55       1.0000    0.05799   0.60913   0.12274   Biso      1.000     H          0.083923  
         H56       1.0000    0.03811   0.73308   0.08812   Biso      1.000     H          0.096509  
         H57       1.0000    0.16103   0.76950   0.95896   Biso      1.000     H          0.075607  
         H58       1.0000    0.83639   0.44554   0.12321   Biso      1.000     H          0.082961  
         H59       1.0000    0.94260   0.42537   0.06019   Biso      1.000     H          0.092739 