
##########################################################################
#               Crystallographic Information Format file
#               Produced by PyCifRW module
#
#  This is a CIF file.  CIF has been adopted by the International
#  Union of Crystallography as the standard for data archiving and
#  transmission.
#
#  For information on this file format, follow the CIF links at
#  http://www.iucr.org
##########################################################################

data_image0

_cell_length_a                          10.488
_cell_length_b                          10.212
_cell_length_c                          11.273
_cell_angle_alpha                       90
_cell_angle_beta                        92.89
_cell_angle_gamma                       90
_symmetry_space_group_name_H-M          'P 1'
_symmetry_int_tables_number             1
loop_
  _symmetry_equiv_pos_as_xyz
         'x, y, z' 
loop_
  _atom_site_label
  _atom_site_occupancy
  _atom_site_fract_x
  _atom_site_fract_y
  _atom_site_fract_z
  _atom_site_thermal_displace_type
  _atom_site_B_iso_or_equiv
  _atom_site_type_symbol
  _atom_site_charge
         C1        1.0000    0.83380   0.51130   0.63240   Biso      1.000     C          0.327676  
         C2        1.0000    0.75090   0.61670   0.25560   Biso      1.000     C          0.152552  
         C3        1.0000    0.74910   0.88330   0.74440   Biso      1.000     C          0.152552  
         C4        1.0000    0.66620   0.01130   0.86760   Biso      1.000     C          0.327676  
         C5        1.0000    0.66620   0.98870   0.36760   Biso      1.000     C          0.327676  
         C6        1.0000    0.74910   0.11670   0.24440   Biso      1.000     C          0.152551  
         C7        1.0000    0.75090   0.38330   0.75560   Biso      1.000     C          0.152551  
         C8        1.0000    0.24910   0.38330   0.74440   Biso      1.000     C          0.152552  
         C9        1.0000    0.16620   0.48870   0.36760   Biso      1.000     C          0.327676  
         C10       1.0000    0.24910   0.61670   0.24440   Biso      1.000     C          0.152552  
         C11       1.0000    0.16620   0.51130   0.86760   Biso      1.000     C          0.327676  
         C12       1.0000    0.33380   0.98870   0.13240   Biso      1.000     C          0.327676  
         C13       1.0000    0.25090   0.88330   0.75560   Biso      1.000     C          0.152551  
         C14       1.0000    0.33380   0.01130   0.63240   Biso      1.000     C          0.327676  
         C15       1.0000    0.25090   0.11670   0.25560   Biso      1.000     C          0.152552  
         C16       1.0000    0.83380   0.48870   0.13240   Biso      1.000     C          0.327676  
         Cd1       1.0000    0.63410   0.86379   0.10660   Biso      1.000     Cd          0.664134  
         Cd2       1.0000    0.13410   0.63621   0.60660   Biso      1.000     Cd          0.664134  
         Cd3       1.0000    0.86590   0.36379   0.39340   Biso      1.000     Cd          0.664134  
         Cd4       1.0000    0.36590   0.13621   0.89340   Biso      1.000     Cd          0.664134  
         Cd5       1.0000    0.36590   0.86379   0.39340   Biso      1.000     Cd          0.664135  
         Cd6       1.0000    0.13410   0.36379   0.10660   Biso      1.000     Cd          0.664134  
         Cd7       1.0000    0.86590   0.63621   0.89340   Biso      1.000     Cd          0.664134  
         Cd8       1.0000    0.63410   0.13621   0.60660   Biso      1.000     Cd          0.664134  
         H1        1.0000    0.77740   0.15160   0.17420   Biso      1.000     H          0.089267  
         H2        1.0000    0.22260   0.15160   0.32580   Biso      1.000     H          0.089267  
         H3        1.0000    0.27740   0.65160   0.17420   Biso      1.000     H          0.089267  
         H4        1.0000    0.27740   0.34840   0.67420   Biso      1.000     H          0.089267  
         H5        1.0000    0.72260   0.65160   0.32580   Biso      1.000     H          0.089267  
         H6        1.0000    0.77740   0.84840   0.67420   Biso      1.000     H          0.089267  
         H7        1.0000    0.22260   0.84840   0.82580   Biso      1.000     H          0.089267  
         H8        1.0000    0.72260   0.34840   0.82580   Biso      1.000     H          0.089267  
         N1        1.0000    0.81070   0.50050   0.24930   Biso      1.000     N          -0.341176           
         N2        1.0000    0.73660   0.67590   0.15190   Biso      1.000     N          -0.182459           
         N3        1.0000    0.79090   0.59340   0.07120   Biso      1.000     N          -0.256353           
         N4        1.0000    0.29090   0.90660   0.57120   Biso      1.000     N          -0.256357           
         N5        1.0000    0.23660   0.82410   0.65190   Biso      1.000     N          -0.182455           
         N6        1.0000    0.31070   0.99950   0.74930   Biso      1.000     N          -0.341176           
         N7        1.0000    0.31070   0.00050   0.24930   Biso      1.000     N          -0.341176           
         N8        1.0000    0.23660   0.17590   0.15190   Biso      1.000     N          -0.182459           
         N9        1.0000    0.29090   0.09340   0.07120   Biso      1.000     N          -0.256353           
         N10       1.0000    0.79090   0.40660   0.57120   Biso      1.000     N          -0.256357           
         N11       1.0000    0.73660   0.32410   0.65190   Biso      1.000     N          -0.182455           
         N12       1.0000    0.26340   0.32410   0.84810   Biso      1.000     N          -0.182459           
         N13       1.0000    0.18930   0.49950   0.75070   Biso      1.000     N          -0.341176           
         N14       1.0000    0.26340   0.67590   0.34810   Biso      1.000     N          -0.182459           
         N15       1.0000    0.20910   0.40660   0.92880   Biso      1.000     N          -0.256353           
         N16       1.0000    0.68930   0.99950   0.75070   Biso      1.000     N          -0.341176           
         N17       1.0000    0.70910   0.09340   0.42880   Biso      1.000     N          -0.256357           
         N18       1.0000    0.18930   0.50050   0.25070   Biso      1.000     N          -0.341176           
         N19       1.0000    0.68930   0.00050   0.25070   Biso      1.000     N          -0.341176           
         N20       1.0000    0.76340   0.82410   0.84810   Biso      1.000     N          -0.182459           
         N21       1.0000    0.76340   0.17590   0.34810   Biso      1.000     N          -0.182455           
         N22       1.0000    0.20910   0.59340   0.42880   Biso      1.000     N          -0.256353           
         N23       1.0000    0.70910   0.90660   0.92880   Biso      1.000     N          -0.256353           
         N24       1.0000    0.81070   0.49950   0.74930   Biso      1.000     N          -0.341176           
         S1        1.0000    0.60161   0.14701   0.93584   Biso      1.000     S          -0.45364  
         S2        1.0000    0.39839   0.85299   0.06416   Biso      1.000     S          -0.45364  
         S3        1.0000    0.89839   0.64701   0.56416   Biso      1.000     S          -0.45364  
         S4        1.0000    0.60161   0.85299   0.43584   Biso      1.000     S          -0.45364  
         S5        1.0000    0.89839   0.35299   0.06416   Biso      1.000     S          -0.45364  
         S6        1.0000    0.10161   0.35299   0.43584   Biso      1.000     S          -0.45364  
         S7        1.0000    0.10161   0.64701   0.93584   Biso      1.000     S          -0.45364  
         S8        1.0000    0.39839   0.14701   0.56416   Biso      1.000     S          -0.45364 