
##########################################################################
#               Crystallographic Information Format file
#               Produced by PyCifRW module
#
#  This is a CIF file.  CIF has been adopted by the International
#  Union of Crystallography as the standard for data archiving and
#  transmission.
#
#  For information on this file format, follow the CIF links at
#  http://www.iucr.org
##########################################################################

data_image0

_cell_length_a                          13.139
_cell_length_b                          14.865
_cell_length_c                          14.865
_cell_angle_alpha                       90
_cell_angle_beta                        90
_cell_angle_gamma                       90
_symmetry_space_group_name_H-M          'P 1'
_symmetry_int_tables_number             1
loop_
  _symmetry_equiv_pos_as_xyz
         'x, y, z' 
loop_
  _atom_site_label
  _atom_site_occupancy
  _atom_site_fract_x
  _atom_site_fract_y
  _atom_site_fract_z
  _atom_site_thermal_displace_type
  _atom_site_B_iso_or_equiv
  _atom_site_type_symbol
  _atom_site_charge
         C1        1.0000    0.73680   0.26600   0.01800   Biso      1.000     C          -0.0954   
         C2        1.0000    0.54390   0.89230   0.43680   Biso      1.000     C          -0.110698           
         C3        1.0000    0.56120   0.89270   0.28870   Biso      1.000     C          0.085066  
         C4        1.0000    0.41410   0.97870   0.34590   Biso      1.000     C          0.176694  
         C5        1.0000    0.40020   0.05010   0.40400   Biso      1.000     C          -0.191842           
         C6        1.0000    0.31600   0.10700   0.39230   Biso      1.000     C          -0.095719           
         C7        1.0000    0.24840   0.09110   0.32250   Biso      1.000     C          -0.021528           
         C8        1.0000    0.26320   0.01800   0.26600   Biso      1.000     C          -0.0954   
         C9        1.0000    0.34780   0.96160   0.27630   Biso      1.000     C          -0.193003           
         C10       1.0000    0.15810   0.15180   0.30740   Biso      1.000     C          0.550788  
         C11       1.0000    0.72500   0.85800   0.03640   Biso      1.000     C          0.074845  
         C12       1.0000    0.72400   0.92250   0.96230   Biso      1.000     C          -0.140297           
         C13       1.0000    0.87390   0.58640   0.15700   Biso      1.000     C          -0.036786           
         C14       1.0000    0.95610   0.56320   0.10770   Biso      1.000     C          -0.110678           
         C15       1.0000    0.93880   0.71130   0.10730   Biso      1.000     C          0.085066  
         C16       1.0000    0.08590   0.65410   0.02130   Biso      1.000     C          0.176694  
         C17       1.0000    0.09980   0.59600   0.94990   Biso      1.000     C          -0.191842           
         C18       1.0000    0.18400   0.60770   0.89300   Biso      1.000     C          -0.095719           
         C19       1.0000    0.25160   0.67750   0.90890   Biso      1.000     C          -0.021528           
         C20       1.0000    0.23680   0.73400   0.98200   Biso      1.000     C          -0.0954   
         C21       1.0000    0.15220   0.72370   0.03840   Biso      1.000     C          -0.193003           
         C22       1.0000    0.34190   0.69260   0.84820   Biso      1.000     C          0.550788  
         C23       1.0000    0.62610   0.84300   0.41360   Biso      1.000     C          -0.036765           
         C24       1.0000    0.87610   0.08640   0.34300   Biso      1.000     C          -0.036786           
         C25       1.0000    0.79390   0.06320   0.39230   Biso      1.000     C          -0.110678           
         C26       1.0000    0.81120   0.21130   0.39270   Biso      1.000     C          0.085066  
         C27       1.0000    0.00000   0.50990   0.50990   Biso      1.000     C          -0.058894           
         C28       1.0000    0.02600   0.42250   0.53770   Biso      1.000     C          -0.140297           
         C29       1.0000    0.02500   0.35800   0.46360   Biso      1.000     C          0.074845  
         C30       1.0000    0.59190   0.65180   0.19260   Biso      1.000     C          0.550788  
         C31       1.0000    0.40220   0.46160   0.22370   Biso      1.000     C          -0.193006           
         C32       1.0000    0.48680   0.51800   0.23400   Biso      1.000     C          -0.0954   
         C33       1.0000    0.50160   0.59110   0.17750   Biso      1.000     C          -0.021528           
         C34       1.0000    0.43400   0.60700   0.10770   Biso      1.000     C          -0.095718           
         C35       1.0000    0.34980   0.55010   0.09600   Biso      1.000     C          -0.191846           
         C36       1.0000    0.33590   0.47870   0.15410   Biso      1.000     C          0.176699  
         C37       1.0000    0.77500   0.96360   0.14200   Biso      1.000     C          0.074844  
         C38       1.0000    0.18880   0.39270   0.21130   Biso      1.000     C          0.085066  
         C39       1.0000    0.12390   0.34300   0.08640   Biso      1.000     C          -0.036786           
         C40       1.0000    0.97400   0.53770   0.42250   Biso      1.000     C          -0.140297           
         C41       1.0000    0.97500   0.46360   0.35800   Biso      1.000     C          0.074845  
         C42       1.0000    0.40810   0.19260   0.65180   Biso      1.000     C          0.550788  
         C43       1.0000    0.59780   0.22370   0.46160   Biso      1.000     C          -0.193006           
         C44       1.0000    0.51320   0.23400   0.51800   Biso      1.000     C          -0.0954   
         C45       1.0000    0.49840   0.17750   0.59110   Biso      1.000     C          -0.021528           
         C46       1.0000    0.56600   0.10770   0.60700   Biso      1.000     C          -0.095718           
         C47       1.0000    0.65020   0.09600   0.55010   Biso      1.000     C          -0.191846           
         C48       1.0000    0.66410   0.15410   0.47870   Biso      1.000     C          0.176699  
         C49       1.0000    0.20610   0.39230   0.06320   Biso      1.000     C          -0.110678           
         C50       1.0000    0.75160   0.32250   0.09110   Biso      1.000     C          -0.021528           
         C51       1.0000    0.77600   0.03770   0.07750   Biso      1.000     C          -0.140297           
         C52       1.0000    0.27600   0.96230   0.92250   Biso      1.000     C          -0.140298           
         C53       1.0000    0.31120   0.78870   0.60730   Biso      1.000     C          0.085066  
         C54       1.0000    0.29390   0.93680   0.60770   Biso      1.000     C          -0.110698           
         C55       1.0000    0.37610   0.91360   0.65700   Biso      1.000     C          -0.036765           
         C56       1.0000    0.12610   0.15700   0.58640   Biso      1.000     C          -0.036786           
         C57       1.0000    0.04390   0.10770   0.56320   Biso      1.000     C          -0.110678           
         C58       1.0000    0.06120   0.10730   0.71130   Biso      1.000     C          0.085066  
         C59       1.0000    0.91410   0.02130   0.65410   Biso      1.000     C          0.176694  
         C60       1.0000    0.90020   0.94990   0.59600   Biso      1.000     C          -0.191842           
         C61       1.0000    0.81600   0.89300   0.60770   Biso      1.000     C          -0.095719           
         C62       1.0000    0.74840   0.90890   0.67750   Biso      1.000     C          -0.021528           
         C63       1.0000    0.76320   0.98200   0.73400   Biso      1.000     C          -0.0954   
         C64       1.0000    0.84780   0.03840   0.72370   Biso      1.000     C          -0.193003           
         C65       1.0000    0.65810   0.84820   0.69260   Biso      1.000     C          0.550788  
         C66       1.0000    0.22500   0.14200   0.96360   Biso      1.000     C          0.074845  
         C67       1.0000    0.22400   0.07750   0.03770   Biso      1.000     C          -0.140297           
         C68       1.0000    0.37390   0.41360   0.84300   Biso      1.000     C          -0.036786           
         C69       1.0000    0.45610   0.43680   0.89230   Biso      1.000     C          -0.110678           
         C70       1.0000    0.43880   0.28870   0.89270   Biso      1.000     C          0.085066  
         C71       1.0000    0.58590   0.34590   0.97870   Biso      1.000     C          0.176694  
         C72       1.0000    0.59980   0.40400   0.05010   Biso      1.000     C          -0.191842           
         C73       1.0000    0.68400   0.39230   0.10700   Biso      1.000     C          -0.095719           
         C74       1.0000    0.75000   0.00990   0.99010   Biso      1.000     C          -0.058892           
         C75       1.0000    0.15020   0.90400   0.44990   Biso      1.000     C          -0.191845           
         C76       1.0000    0.16410   0.84590   0.52130   Biso      1.000     C          0.176697  
         C77       1.0000    0.99840   0.82250   0.40890   Biso      1.000     C          -0.021528           
         C78       1.0000    0.27500   0.03640   0.85800   Biso      1.000     C          0.074845  
         C79       1.0000    0.84190   0.30740   0.15180   Biso      1.000     C          0.550788  
         C80       1.0000    0.65220   0.27630   0.96160   Biso      1.000     C          -0.193003           
         C81       1.0000    0.50000   0.49010   0.49010   Biso      1.000     C          -0.058894           
         C82       1.0000    0.52600   0.57750   0.46230   Biso      1.000     C          -0.140297           
         C83       1.0000    0.52500   0.64200   0.53640   Biso      1.000     C          0.074845  
         C84       1.0000    0.09190   0.34820   0.80740   Biso      1.000     C          0.550788  
         C85       1.0000    0.90220   0.53840   0.77630   Biso      1.000     C          -0.193006           
         C86       1.0000    0.98680   0.48200   0.76600   Biso      1.000     C          -0.0954   
         C87       1.0000    0.00160   0.40890   0.82250   Biso      1.000     C          -0.021528           
         C88       1.0000    0.06600   0.89230   0.39300   Biso      1.000     C          -0.095719           
         C89       1.0000    0.93400   0.39300   0.89230   Biso      1.000     C          -0.095719           
         C90       1.0000    0.83590   0.52130   0.84590   Biso      1.000     C          0.176696  
         C91       1.0000    0.68880   0.60730   0.78870   Biso      1.000     C          0.085066  
         C92       1.0000    0.70610   0.60770   0.93680   Biso      1.000     C          -0.110698           
         C93       1.0000    0.62390   0.65700   0.91360   Biso      1.000     C          -0.036765           
         C94       1.0000    0.47400   0.46230   0.57750   Biso      1.000     C          -0.140297           
         C95       1.0000    0.47500   0.53640   0.64200   Biso      1.000     C          0.074845  
         C96       1.0000    0.90810   0.80740   0.34820   Biso      1.000     C          0.550788  
         C97       1.0000    0.09780   0.77630   0.53840   Biso      1.000     C          -0.193004           
         C98       1.0000    0.01320   0.76600   0.48200   Biso      1.000     C          -0.0954   
         C99       1.0000    0.84980   0.44990   0.90400   Biso      1.000     C          -0.191843           
         C100      1.0000    0.25000   0.99010   0.00990   Biso      1.000     C          -0.058892           
         Cd1       1.0000    0.25000   0.23053   0.76947   Biso      1.000     Cd          0.792044  
         Cd2       1.0000    0.75000   0.76947   0.23053   Biso      1.000     Cd          0.792044  
         Cd3       1.0000    0.50000   0.73053   0.73053   Biso      1.000     Cd          0.792044  
         Cd4       1.0000    0.00000   0.26947   0.26947   Biso      1.000     Cd          0.792044  
         H1        1.0000    0.46630   0.27930   0.50620   Biso      1.000     H          0.116601  
         H2        1.0000    0.89110   0.58620   0.73720   Biso      1.000     H          0.130394  
         H3        1.0000    0.03370   0.49380   0.72070   Biso      1.000     H          0.116601  
         H4        1.0000    0.94440   0.34490   0.93120   Biso      1.000     H          0.121758  
         H5        1.0000    0.80380   0.43960   0.95040   Biso      1.000     H          0.116754  
         H6        1.0000    0.70060   0.59580   0.72820   Biso      1.000     H          0.111554  
         H7        1.0000    0.73010   0.59690   0.99460   Biso      1.000     H          0.133788  
         H8        1.0000    0.58130   0.68700   0.95350   Biso      1.000     H          0.128066  
         H9        1.0000    0.45900   0.40320   0.59270   Biso      1.000     H          0.137569  
         H10       1.0000    0.45660   0.52450   0.70130   Biso      1.000     H          0.088546  
         H11       1.0000    0.10890   0.73720   0.58620   Biso      1.000     H          0.130393  
         H12       1.0000    0.96630   0.72070   0.49380   Biso      1.000     H          0.116601  
         H13       1.0000    0.91870   0.04650   0.31300   Biso      1.000     H          0.128068  
         H14       1.0000    0.76990   0.00540   0.40310   Biso      1.000     H          0.133787  
         H15       1.0000    0.79940   0.27180   0.40420   Biso      1.000     H          0.111554  
         H16       1.0000    0.54340   0.70130   0.52450   Biso      1.000     H          0.088546  
         H17       1.0000    0.54100   0.59270   0.40320   Biso      1.000     H          0.137569  
         H18       1.0000    0.25000   0.94590   0.05410   Biso      1.000     H          0.096724  
         H19       1.0000    0.50000   0.44590   0.44590   Biso      1.000     H          0.096724  
         H20       1.0000    0.64110   0.23720   0.91380   Biso      1.000     H          0.130393  
         H21       1.0000    0.78370   0.22070   0.00620   Biso      1.000     H          0.116601  
         H22       1.0000    0.69440   0.43120   0.15510   Biso      1.000     H          0.121758  
         H23       1.0000    0.55380   0.45040   0.06040   Biso      1.000     H          0.116754  
         H24       1.0000    0.45060   0.22820   0.90420   Biso      1.000     H          0.111554  
         H25       1.0000    0.48010   0.49460   0.90310   Biso      1.000     H          0.133787  
         H26       1.0000    0.33130   0.45350   0.81300   Biso      1.000     H          0.128068  
         H27       1.0000    0.69620   0.04960   0.56040   Biso      1.000     H          0.116754  
         H28       1.0000    0.20900   0.09270   0.09680   Biso      1.000     H          0.137569  
         H29       1.0000    0.85890   0.08620   0.76280   Biso      1.000     H          0.130393  
         H30       1.0000    0.71630   0.99380   0.77930   Biso      1.000     H          0.116601  
         H31       1.0000    0.80560   0.84490   0.56880   Biso      1.000     H          0.121758  
         H32       1.0000    0.94620   0.93960   0.54960   Biso      1.000     H          0.116754  
         H33       1.0000    0.04940   0.09580   0.77180   Biso      1.000     H          0.111554  
         H34       1.0000    0.01990   0.09690   0.50540   Biso      1.000     H          0.133787  
         H35       1.0000    0.16870   0.18700   0.54650   Biso      1.000     H          0.128068  
         H36       1.0000    0.20660   0.20130   0.97550   Biso      1.000     H          0.088546  
         H37       1.0000    0.55560   0.06880   0.65510   Biso      1.000     H          0.121758  
         H38       1.0000    0.29100   0.90320   0.90730   Biso      1.000     H          0.137569  
         H39       1.0000    0.60890   0.26280   0.41380   Biso      1.000     H          0.130394  
         H40       1.0000    0.98010   0.50540   0.09690   Biso      1.000     H          0.133787  
         H41       1.0000    0.83130   0.54650   0.18700   Biso      1.000     H          0.128068  
         H42       1.0000    0.70900   0.90730   0.90320   Biso      1.000     H          0.137569  
         H43       1.0000    0.70660   0.79870   0.02450   Biso      1.000     H          0.088546  
         H44       1.0000    0.35890   0.91380   0.23720   Biso      1.000     H          0.130393  
         H45       1.0000    0.21630   0.00620   0.22070   Biso      1.000     H          0.116601  
         H46       1.0000    0.30560   0.15510   0.43120   Biso      1.000     H          0.121758  
         H47       1.0000    0.95060   0.77180   0.09580   Biso      1.000     H          0.111554  
         H48       1.0000    0.44620   0.06040   0.45040   Biso      1.000     H          0.116754  
         H49       1.0000    0.51990   0.90310   0.49460   Biso      1.000     H          0.133788  
         H50       1.0000    0.66870   0.81300   0.45350   Biso      1.000     H          0.128066  
         H51       1.0000    0.05560   0.93120   0.34490   Biso      1.000     H          0.121758  
         H52       1.0000    0.19620   0.95040   0.43960   Biso      1.000     H          0.116754  
         H53       1.0000    0.29940   0.72820   0.59580   Biso      1.000     H          0.111554  
         H54       1.0000    0.26990   0.99460   0.59690   Biso      1.000     H          0.133788  
         H55       1.0000    0.41870   0.95350   0.68700   Biso      1.000     H          0.128066  
         H56       1.0000    0.54940   0.90420   0.22820   Biso      1.000     H          0.111554  
         H57       1.0000    0.29340   0.02450   0.79870   Biso      1.000     H          0.088546  
         H58       1.0000    0.05380   0.54960   0.93960   Biso      1.000     H          0.116754  
         H59       1.0000    0.28370   0.77930   0.99380   Biso      1.000     H          0.116601  
         H60       1.0000    0.95660   0.47550   0.29870   Biso      1.000     H          0.088546  
         H61       1.0000    0.95900   0.59680   0.40730   Biso      1.000     H          0.137569  
         H62       1.0000    0.08130   0.31300   0.04650   Biso      1.000     H          0.128068  
         H63       1.0000    0.23010   0.40310   0.00540   Biso      1.000     H          0.133787  
         H64       1.0000    0.20060   0.40420   0.27180   Biso      1.000     H          0.111554  
         H65       1.0000    0.30380   0.56040   0.04960   Biso      1.000     H          0.116754  
         H66       1.0000    0.44440   0.65510   0.06880   Biso      1.000     H          0.121758  
         H67       1.0000    0.19440   0.56880   0.84490   Biso      1.000     H          0.121758  
         H68       1.0000    0.53370   0.50620   0.27930   Biso      1.000     H          0.116601  
         H69       1.0000    0.04340   0.29870   0.47550   Biso      1.000     H          0.088546  
         H70       1.0000    0.04100   0.40730   0.59680   Biso      1.000     H          0.137569  
         H71       1.0000    0.00000   0.55410   0.55410   Biso      1.000     H          0.096724  
         H72       1.0000    0.75000   0.05410   0.94590   Biso      1.000     H          0.096724  
         H73       1.0000    0.79100   0.09680   0.09270   Biso      1.000     H          0.137569  
         H74       1.0000    0.79340   0.97550   0.20130   Biso      1.000     H          0.088546  
         H75       1.0000    0.14110   0.76280   0.08620   Biso      1.000     H          0.130393  
         H76       1.0000    0.39110   0.41380   0.26280   Biso      1.000     H          0.130393  
         N1        1.0000    0.00000   0.38020   0.38020   Biso      1.000     N          -0.213959           
         N2        1.0000    0.50000   0.61980   0.61980   Biso      1.000     N          -0.213959           
         N3        1.0000    0.25270   0.85720   0.57660   Biso      1.000     N          0.010061  
         N4        1.0000    0.36280   0.31990   0.84420   Biso      1.000     N          -0.262441           
         N5        1.0000    0.00270   0.07660   0.64280   Biso      1.000     N          0.010059  
         N6        1.0000    0.13720   0.15580   0.68010   Biso      1.000     N          -0.262441           
         N7        1.0000    0.11280   0.34420   0.18010   Biso      1.000     N          -0.262441           
         N8        1.0000    0.88720   0.18010   0.34420   Biso      1.000     N          -0.262441           
         N9        1.0000    0.49730   0.35720   0.92340   Biso      1.000     N          0.010059  
         N10       1.0000    0.25000   0.11980   0.88020   Biso      1.000     N          -0.213959           
         N11       1.0000    0.38720   0.81990   0.65580   Biso      1.000     N          -0.262444           
         N12       1.0000    0.75270   0.14280   0.42340   Biso      1.000     N          0.010059  
         N13       1.0000    0.63720   0.84420   0.31990   Biso      1.000     N          -0.262444           
         N14       1.0000    0.50270   0.92340   0.35720   Biso      1.000     N          0.010061  
         N15       1.0000    0.86280   0.68010   0.15580   Biso      1.000     N          -0.262441           
         N16       1.0000    0.99730   0.64280   0.07660   Biso      1.000     N          0.010059  
         N17       1.0000    0.75000   0.88020   0.11980   Biso      1.000     N          -0.213958           
         N18       1.0000    0.74730   0.57660   0.85720   Biso      1.000     N          0.010061  
         N19       1.0000    0.61280   0.65580   0.81990   Biso      1.000     N          -0.262444           
         N20       1.0000    0.24730   0.42340   0.14280   Biso      1.000     N          0.010059  
         O1        1.0000    0.64870   0.78200   0.64060   Biso      1.000     O          -0.588909           
         O2        1.0000    0.59750   0.86480   0.75540   Biso      1.000     O          -0.553836           
         O3        1.0000    0.65250   0.63520   0.25540   Biso      1.000     O          -0.553836           
         O4        1.0000    0.35130   0.64060   0.78200   Biso      1.000     O          -0.588909           
         O5        1.0000    0.09750   0.13520   0.24460   Biso      1.000     O          -0.553836           
         O6        1.0000    0.14870   0.21800   0.35940   Biso      1.000     O          -0.588909           
         O7        1.0000    0.85130   0.35940   0.21800   Biso      1.000     O          -0.588909           
         O8        1.0000    0.60130   0.71800   0.14060   Biso      1.000     O          -0.588909           
         O9        1.0000    0.34750   0.25540   0.63520   Biso      1.000     O          -0.553836           
         O10       1.0000    0.39870   0.14060   0.71800   Biso      1.000     O          -0.588909           
         O11       1.0000    0.15250   0.36480   0.74460   Biso      1.000     O          -0.553836           
         O12       1.0000    0.10130   0.28200   0.85940   Biso      1.000     O          -0.588909           
         O13       1.0000    0.84750   0.74460   0.36480   Biso      1.000     O          -0.553836           
         O14       1.0000    0.89870   0.85940   0.28200   Biso      1.000     O          -0.588909           
         O15       1.0000    0.40250   0.75540   0.86480   Biso      1.000     O          -0.553836           
         O16       1.0000    0.90250   0.24460   0.13520   Biso      1.000     O          -0.553836 