
##########################################################################
#               Crystallographic Information Format file
#               Produced by PyCifRW module
#
#  This is a CIF file.  CIF has been adopted by the International
#  Union of Crystallography as the standard for data archiving and
#  transmission.
#
#  For information on this file format, follow the CIF links at
#  http://www.iucr.org
##########################################################################

data_image0

_cell_length_a                          7.97
_cell_length_b                          9.419
_cell_length_c                          10.391
_cell_angle_alpha                       95.79
_cell_angle_beta                        112.084
_cell_angle_gamma                       110.002
_symmetry_space_group_name_H-M          'P 1'
_symmetry_int_tables_number             1
loop_
  _symmetry_equiv_pos_as_xyz
         'x, y, z' 
loop_
  _atom_site_label
  _atom_site_occupancy
  _atom_site_fract_x
  _atom_site_fract_y
  _atom_site_fract_z
  _atom_site_thermal_displace_type
  _atom_site_B_iso_or_equiv
  _atom_site_type_symbol
  _atom_site_charge
         C1        1.0000    0.23900   0.72500   0.96420   Biso      1.000     C          0.642334  
         C2        1.0000    0.78410   0.44150   0.05760   Biso      1.000     C          -0.313157           
         C3        1.0000    0.67230   0.47330   0.91620   Biso      1.000     C          -0.315338           
         C4        1.0000    0.67590   0.63650   0.93960   Biso      1.000     C          0.6358060000000001  
         C5        1.0000    0.34700   0.97830   0.70760   Biso      1.000     C          0.587079  
         C6        1.0000    0.15570   0.87490   0.30290   Biso      1.000     C          0.013914  
         C7        1.0000    0.22700   0.86420   0.44210   Biso      1.000     C          -0.148927           
         C8        1.0000    0.27510   0.98920   0.55380   Biso      1.000     C          0.029643  
         C9        1.0000    0.25540   0.12270   0.52050   Biso      1.000     C          -0.14948599999999998          
         C10       1.0000    0.19170   0.13180   0.37940   Biso      1.000     C          0.013116  
         C11       1.0000    0.21590   0.55850   0.94240   Biso      1.000     C          -0.313163           
         C12       1.0000    0.32770   0.52670   0.08380   Biso      1.000     C          -0.315336           
         C13       1.0000    0.32410   0.36350   0.06040   Biso      1.000     C          0.635871  
         C14       1.0000    0.65300   0.02170   0.29240   Biso      1.000     C          0.587082  
         C15       1.0000    0.84430   0.12510   0.69710   Biso      1.000     C          0.013927000000000002          
         C16       1.0000    0.76100   0.27500   0.03580   Biso      1.000     C          0.642349  
         C17       1.0000    0.77300   0.13580   0.55790   Biso      1.000     C          -0.148931           
         C18       1.0000    0.80830   0.86820   0.62060   Biso      1.000     C          0.013116  
         C19       1.0000    0.72490   0.01080   0.44620   Biso      1.000     C          0.029648  
         C20       1.0000    0.74460   0.87730   0.47950   Biso      1.000     C          -0.14948499999999998          
         Eu1       1.0000    0.71835   0.94910   0.98899   Biso      1.000     Eu          1.28629   
         Eu2       1.0000    0.28165   0.05090   0.01101   Biso      1.000     Eu          1.286276  
         H1        1.0000    0.26650   0.53780   0.14920   Biso      1.000     H          0.126435  
         H2        1.0000    0.73290   0.46400   0.12690   Biso      1.000     H          0.140479  
         H3        1.0000    0.73350   0.46220   0.85080   Biso      1.000     H          0.126436  
         H4        1.0000    0.53270   0.39450   0.86940   Biso      1.000     H          0.13841900000000001           
         H5        1.0000    0.11710   0.78870   0.22610   Biso      1.000     H          0.129927  
         H6        1.0000    0.24380   0.77260   0.46280   Biso      1.000     H          0.144779  
         H7        1.0000    0.28570   0.20820   0.59460   Biso      1.000     H          0.14496900000000001           
         H8        1.0000    0.46730   0.60550   0.13060   Biso      1.000     H          0.138405  
         H9        1.0000    0.88290   0.21130   0.77390   Biso      1.000     H          0.129942  
         H10       1.0000    0.75620   0.22740   0.53720   Biso      1.000     H          0.144781  
         H11       1.0000    0.18420   0.22520   0.35650   Biso      1.000     H          0.141957  
         H12       1.0000    0.81580   0.77480   0.64350   Biso      1.000     H          0.141956  
         H13       1.0000    0.26710   0.53600   0.87310   Biso      1.000     H          0.140497  
         H14       1.0000    0.07310   0.48760   0.90100   Biso      1.000     H          0.12347000000000001           
         H15       1.0000    0.71430   0.79180   0.40540   Biso      1.000     H          0.14496199999999998           
         H16       1.0000    0.92690   0.51240   0.09900   Biso      1.000     H          0.123453  
         N1        1.0000    0.14050   0.00700   0.27500   Biso      1.000     N          0.351483  
         N2        1.0000    0.85950   0.99300   0.72500   Biso      1.000     N          0.351488  
         O1        1.0000    0.89540   0.23790   0.02760   Biso      1.000     O          -0.507217           
         O2        1.0000    0.92730   0.98280   0.86240   Biso      1.000     O          -0.473545           
         O3        1.0000    0.49720   0.04330   0.24200   Biso      1.000     O          -0.527528           
         O4        1.0000    0.75690   0.00710   0.23070   Biso      1.000     O          -0.517432           
         O5        1.0000    0.39160   0.31340   0.16900   Biso      1.000     O          -0.562697           
         O6        1.0000    0.25640   0.28110   0.93420   Biso      1.000     O          -0.540694           
         O7        1.0000    0.10460   0.76210   0.97240   Biso      1.000     O          -0.507128           
         O8        1.0000    0.39880   0.83250   0.97680   Biso      1.000     O          -0.594241           
         O9        1.0000    0.07270   0.01720   0.13760   Biso      1.000     O          -0.473578           
         O10       1.0000    0.50280   0.95670   0.75800   Biso      1.000     O          -0.527526           
         O11       1.0000    0.24310   0.99290   0.76930   Biso      1.000     O          -0.517404           
         O12       1.0000    0.60840   0.68660   0.83100   Biso      1.000     O          -0.562767           
         O13       1.0000    0.74360   0.71890   0.06580   Biso      1.000     O          -0.5404720000000001           
         O14       1.0000    0.60120   0.16750   0.02320   Biso      1.000     O          -0.5942390000000001 