
##########################################################################
#               Crystallographic Information Format file
#               Produced by PyCifRW module
#
#  This is a CIF file.  CIF has been adopted by the International
#  Union of Crystallography as the standard for data archiving and
#  transmission.
#
#  For information on this file format, follow the CIF links at
#  http://www.iucr.org
##########################################################################

data_image0

_cell_length_a                          7.076
_cell_length_b                          12.814
_cell_length_c                          13.483
_cell_angle_alpha                       90
_cell_angle_beta                        104.188
_cell_angle_gamma                       90
_symmetry_space_group_name_H-M          'P 1'
_symmetry_int_tables_number             1
loop_
  _symmetry_equiv_pos_as_xyz
         'x, y, z' 
loop_
  _atom_site_label
  _atom_site_occupancy
  _atom_site_fract_x
  _atom_site_fract_y
  _atom_site_fract_z
  _atom_site_thermal_displace_type
  _atom_site_B_iso_or_equiv
  _atom_site_type_symbol
  _atom_site_charge
         C1        1.0000    0.67950   0.22350   0.05030   Biso      1.000     C          -0.05269600000000001          
         C2        1.0000    0.23050   0.75920   0.83950   Biso      1.000     C          0.684318  
         C3        1.0000    0.32050   0.77650   0.94970   Biso      1.000     C          -0.05269600000000001          
         C4        1.0000    0.33880   0.87820   0.99040   Biso      1.000     C          -0.072033           
         C5        1.0000    0.41980   0.89440   0.09350   Biso      1.000     C          -0.091277           
         C6        1.0000    0.47860   0.81020   0.15790   Biso      1.000     C          -0.082666           
         C7        1.0000    0.45750   0.70840   0.11870   Biso      1.000     C          -0.013497           
         C8        1.0000    0.98460   0.11600   0.81430   Biso      1.000     C          0.577707  
         C9        1.0000    0.38240   0.69320   0.01450   Biso      1.000     C          -0.106866           
         C10       1.0000    0.39320   0.48530   0.47600   Biso      1.000     C          0.536257  
         C11       1.0000    0.26950   0.25920   0.16050   Biso      1.000     C          0.684318  
         C12       1.0000    0.17950   0.27650   0.05030   Biso      1.000     C          -0.05269600000000001          
         C13       1.0000    0.16120   0.37820   0.00960   Biso      1.000     C          -0.072033           
         C14       1.0000    0.08020   0.39440   0.90650   Biso      1.000     C          -0.091277           
         C15       1.0000    0.02140   0.31020   0.84210   Biso      1.000     C          -0.082666           
         C16       1.0000    0.51540   0.61600   0.18570   Biso      1.000     C          0.577706  
         C17       1.0000    0.10680   0.98530   0.52400   Biso      1.000     C          0.5362560000000001  
         C18       1.0000    0.76950   0.24080   0.16050   Biso      1.000     C          0.684318  
         C19       1.0000    0.66120   0.12180   0.00960   Biso      1.000     C          -0.072033           
         C20       1.0000    0.89320   0.01470   0.47600   Biso      1.000     C          0.536257  
         C21       1.0000    0.01540   0.88400   0.18570   Biso      1.000     C          0.577707  
         C22       1.0000    0.88240   0.80680   0.01450   Biso      1.000     C          -0.106867           
         C23       1.0000    0.95750   0.79160   0.11870   Biso      1.000     C          -0.013497           
         C24       1.0000    0.97860   0.68980   0.15790   Biso      1.000     C          -0.082666           
         C25       1.0000    0.91980   0.60560   0.09350   Biso      1.000     C          -0.091277           
         C26       1.0000    0.83880   0.62180   0.99040   Biso      1.000     C          -0.072033           
         C27       1.0000    0.82050   0.72350   0.94970   Biso      1.000     C          -0.052695000000000006         
         C28       1.0000    0.73050   0.74080   0.83950   Biso      1.000     C          0.684318  
         C29       1.0000    0.60680   0.51470   0.52400   Biso      1.000     C          0.536257  
         C30       1.0000    0.48460   0.38400   0.81430   Biso      1.000     C          0.577707  
         C31       1.0000    0.61760   0.30680   0.98550   Biso      1.000     C          -0.106866           
         C32       1.0000    0.54250   0.29160   0.88130   Biso      1.000     C          -0.013497           
         C33       1.0000    0.52140   0.18980   0.84210   Biso      1.000     C          -0.082666           
         C34       1.0000    0.58020   0.10560   0.90650   Biso      1.000     C          -0.091277           
         C35       1.0000    0.04250   0.20840   0.88130   Biso      1.000     C          -0.013497           
         C36       1.0000    0.11760   0.19320   0.98550   Biso      1.000     C          -0.106866           
         Gd1       1.0000    0.38396   0.57040   0.70122   Biso      1.000     Gd          2.029211  
         Gd2       1.0000    0.11604   0.07040   0.29878   Biso      1.000     Gd          2.029211  
         Gd3       1.0000    0.61604   0.42960   0.29878   Biso      1.000     Gd          2.029212  
         Gd4       1.0000    0.88396   0.92960   0.70122   Biso      1.000     Gd          2.029212  
         H1        1.0000    0.03230   0.67880   0.22730   Biso      1.000     H          0.124552  
         H2        1.0000    0.87360   0.87410   0.98800   Biso      1.000     H          0.13194   
         H3        1.0000    0.29610   0.93490   0.94770   Biso      1.000     H          0.117625  
         H4        1.0000    0.53230   0.82120   0.22730   Biso      1.000     H          0.124552  
         H5        1.0000    0.37360   0.62590   0.98800   Biso      1.000     H          0.13194   
         H6        1.0000    0.20390   0.43490   0.05230   Biso      1.000     H          0.117625  
         H7        1.0000    0.06530   0.46190   0.88040   Biso      1.000     H          0.11379700000000001           
         H8        1.0000    0.43470   0.96190   0.11960   Biso      1.000     H          0.11379700000000001           
         H9        1.0000    0.12640   0.12590   0.01200   Biso      1.000     H          0.13194   
         H10       1.0000    0.70390   0.06510   0.05230   Biso      1.000     H          0.117625  
         H11       1.0000    0.56530   0.03810   0.88040   Biso      1.000     H          0.11379700000000001           
         H12       1.0000    0.46770   0.17880   0.77270   Biso      1.000     H          0.124552  
         H13       1.0000    0.62640   0.37410   0.01200   Biso      1.000     H          0.13194   
         H14       1.0000    0.79610   0.56510   0.94770   Biso      1.000     H          0.117625  
         H15       1.0000    0.96770   0.32120   0.77270   Biso      1.000     H          0.124552  
         H16       1.0000    0.93470   0.53810   0.11960   Biso      1.000     H          0.11379700000000001           
         O1        1.0000    0.34720   0.33450   0.21550   Biso      1.000     O          -0.676603           
         O2        1.0000    0.43740   0.37610   0.71630   Biso      1.000     O          -0.638401           
         O3        1.0000    0.48390   0.47290   0.85390   Biso      1.000     O          -0.628042           
         O4        1.0000    0.72890   0.49630   0.47410   Biso      1.000     O          -0.622158           
         O5        1.0000    0.15280   0.83450   0.78450   Biso      1.000     O          -0.676603           
         O6        1.0000    0.73540   0.83090   0.80340   Biso      1.000     O          -0.711134           
         O7        1.0000    0.06260   0.87610   0.28370   Biso      1.000     O          -0.638401           
         O8        1.0000    0.01610   0.97290   0.14610   Biso      1.000     O          -0.628042           
         O9        1.0000    0.76460   0.33090   0.19660   Biso      1.000     O          -0.711134           
         O10       1.0000    0.35970   0.44540   0.38790   Biso      1.000     O          -0.620034           
         O11       1.0000    0.85970   0.05460   0.38790   Biso      1.000     O          -0.620034           
         O12       1.0000    0.56260   0.62390   0.28370   Biso      1.000     O          -0.638401           
         O13       1.0000    0.98390   0.02710   0.85390   Biso      1.000     O          -0.628042           
         O14       1.0000    0.93740   0.12390   0.71630   Biso      1.000     O          -0.638401           
         O15       1.0000    0.84720   0.16550   0.21550   Biso      1.000     O          -0.676602           
         O16       1.0000    0.26460   0.16910   0.19660   Biso      1.000     O          -0.711134           
         O17       1.0000    0.64030   0.55460   0.61210   Biso      1.000     O          -0.620034           
         O18       1.0000    0.27110   0.50370   0.52590   Biso      1.000     O          -0.622158           
         O19       1.0000    0.51610   0.52710   0.14610   Biso      1.000     O          -0.628042           
         O20       1.0000    0.65280   0.66550   0.78450   Biso      1.000     O          -0.676602           
         O21       1.0000    0.23540   0.66910   0.80340   Biso      1.000     O          -0.711134           
         O22       1.0000    0.77110   0.99630   0.52590   Biso      1.000     O          -0.622158           
         O23       1.0000    0.22890   0.00370   0.47410   Biso      1.000     O          -0.622157           
         O24       1.0000    0.14030   0.94540   0.61210   Biso      1.000     O          -0.620034 