
##########################################################################
#               Crystallographic Information Format file
#               Produced by PyCifRW module
#
#  This is a CIF file.  CIF has been adopted by the International
#  Union of Crystallography as the standard for data archiving and
#  transmission.
#
#  For information on this file format, follow the CIF links at
#  http://www.iucr.org
##########################################################################

data_image0

_cell_length_a                          9.689
_cell_length_b                          11.211
_cell_length_c                          12.851
_cell_angle_alpha                       90
_cell_angle_beta                        90
_cell_angle_gamma                       111.726
_symmetry_space_group_name_H-M          'P 1'
_symmetry_int_tables_number             1
loop_
  _symmetry_equiv_pos_as_xyz
         'x, y, z' 
loop_
  _atom_site_label
  _atom_site_occupancy
  _atom_site_fract_x
  _atom_site_fract_y
  _atom_site_fract_z
  _atom_site_thermal_displace_type
  _atom_site_B_iso_or_equiv
  _atom_site_type_symbol
  _atom_site_charge
         C1        1.0000    0.84480   0.14400   0.96440   Biso      1.000     C          0.012509  
         C2        1.0000    0.02800   0.00210   0.14820   Biso      1.000     C          -0.128182           
         C3        1.0000    0.94290   0.88940   0.10140   Biso      1.000     C          0.0592    
         C4        1.0000    0.00100   0.81390   0.04460   Biso      1.000     C          -0.144126           
         C5        1.0000    0.22410   0.77790   0.97570   Biso      1.000     C          0.602452  
         C6        1.0000    0.27720   0.16880   0.18790   Biso      1.000     C          0.717803  
         C7        1.0000    0.55020   0.49440   0.95460   Biso      1.000     C          0.545628  
         C8        1.0000    0.74480   0.97120   0.41760   Biso      1.000     C          -0.090194           
         C9        1.0000    0.68160   0.04450   0.36220   Biso      1.000     C          -0.020299           
         C10       1.0000    0.52800   0.00210   0.35180   Biso      1.000     C          -0.128181           
         C11       1.0000    0.44290   0.88940   0.39860   Biso      1.000     C          0.0592    
         C12       1.0000    0.18160   0.04450   0.13780   Biso      1.000     C          -0.0203   
         C13       1.0000    0.50100   0.81390   0.45540   Biso      1.000     C          -0.144126           
         C14       1.0000    0.77720   0.16880   0.31210   Biso      1.000     C          0.717802  
         C15       1.0000    0.05020   0.49440   0.54540   Biso      1.000     C          0.545628  
         C16       1.0000    0.75520   0.02880   0.91760   Biso      1.000     C          -0.090194           
         C17       1.0000    0.81840   0.95550   0.86220   Biso      1.000     C          -0.0203   
         C18       1.0000    0.97200   0.99790   0.85180   Biso      1.000     C          -0.128181           
         C19       1.0000    0.05710   0.11060   0.89860   Biso      1.000     C          0.0592    
         C20       1.0000    0.99900   0.18610   0.95540   Biso      1.000     C          -0.144127           
         C21       1.0000    0.77590   0.22210   0.02430   Biso      1.000     C          0.602452  
         C22       1.0000    0.72280   0.83120   0.81210   Biso      1.000     C          0.717802  
         C23       1.0000    0.44980   0.50560   0.04540   Biso      1.000     C          0.545628  
         C24       1.0000    0.72410   0.77790   0.52430   Biso      1.000     C          0.602452  
         C25       1.0000    0.24480   0.97120   0.08240   Biso      1.000     C          -0.090193           
         C26       1.0000    0.65520   0.85600   0.46440   Biso      1.000     C          0.012508  
         C27       1.0000    0.94980   0.50560   0.45460   Biso      1.000     C          0.545628  
         C28       1.0000    0.22280   0.83120   0.68790   Biso      1.000     C          0.717803  
         C29       1.0000    0.27590   0.22210   0.47570   Biso      1.000     C          0.602452  
         C30       1.0000    0.49900   0.18610   0.54460   Biso      1.000     C          -0.144129           
         C31       1.0000    0.55710   0.11060   0.60140   Biso      1.000     C          0.059197  
         C32       1.0000    0.47200   0.99790   0.64820   Biso      1.000     C          -0.128176           
         C33       1.0000    0.31840   0.95550   0.63780   Biso      1.000     C          -0.0203   
         C34       1.0000    0.25520   0.02880   0.58240   Biso      1.000     C          -0.090193           
         C35       1.0000    0.34480   0.14400   0.53560   Biso      1.000     C          0.012508  
         C36       1.0000    0.15520   0.85600   0.03560   Biso      1.000     C          0.012508  
         H1        1.0000    0.84760   0.99900   0.42360   Biso      1.000     H          0.146238  
         H2        1.0000    0.56060   0.26210   0.51350   Biso      1.000     H          0.141927  
         H3        1.0000    0.65240   0.00100   0.92360   Biso      1.000     H          0.146238  
         H4        1.0000    0.98420   0.04930   0.18620   Biso      1.000     H          0.141127  
         H5        1.0000    0.93940   0.73790   0.01350   Biso      1.000     H          0.141927  
         H6        1.0000    0.51580   0.95070   0.68620   Biso      1.000     H          0.141126  
         H7        1.0000    0.48420   0.04930   0.31380   Biso      1.000     H          0.141127  
         H8        1.0000    0.15240   0.00100   0.57640   Biso      1.000     H          0.146238  
         H9        1.0000    0.43940   0.73790   0.48650   Biso      1.000     H          0.141927  
         H10       1.0000    0.34760   0.99900   0.07640   Biso      1.000     H          0.146237  
         H11       1.0000    0.01580   0.95070   0.81380   Biso      1.000     H          0.141127  
         H12       1.0000    0.06060   0.26210   0.98650   Biso      1.000     H          0.141927  
         N1        1.0000    0.27890   0.84420   0.38890   Biso      1.000     N          0.528997  
         N2        1.0000    0.77890   0.84420   0.11110   Biso      1.000     N          0.528997  
         N3        1.0000    0.72110   0.15580   0.61110   Biso      1.000     N          0.528997  
         N4        1.0000    0.22110   0.15580   0.88890   Biso      1.000     N          0.528997  
         O1        1.0000    0.27240   0.09020   0.83800   Biso      1.000     O          -0.326154           
         O2        1.0000    0.52570   0.53170   0.86810   Biso      1.000     O          -0.695095           
         O3        1.0000    0.63980   0.67180   0.56470   Biso      1.000     O          -0.681478           
         O4        1.0000    0.86190   0.81480   0.53230   Biso      1.000     O          -0.60096  
         O5        1.0000    0.08590   0.80050   0.68410   Biso      1.000     O          -0.682125           
         O6        1.0000    0.71260   0.23330   0.26860   Biso      1.000     O          -0.723658           
         O7        1.0000    0.22760   0.90980   0.33800   Biso      1.000     O          -0.326153           
         O8        1.0000    0.29540   0.25300   0.93310   Biso      1.000     O          -0.336505           
         O9        1.0000    0.20460   0.74700   0.43310   Biso      1.000     O          -0.336506           
         O10       1.0000    0.02570   0.53170   0.63190   Biso      1.000     O          -0.695094           
         O11       1.0000    0.86020   0.32820   0.06470   Biso      1.000     O          -0.681478           
         O12       1.0000    0.63810   0.18520   0.03230   Biso      1.000     O          -0.60096  
         O13       1.0000    0.41410   0.19950   0.18410   Biso      1.000     O          -0.682125           
         O14       1.0000    0.64600   0.44830   0.97620   Biso      1.000     O          -0.630557           
         O15       1.0000    0.78740   0.76670   0.76860   Biso      1.000     O          -0.723658           
         O16       1.0000    0.14600   0.44830   0.52380   Biso      1.000     O          -0.630557           
         O17       1.0000    0.70460   0.74700   0.06690   Biso      1.000     O          -0.336506           
         O18       1.0000    0.47430   0.46830   0.13190   Biso      1.000     O          -0.695095           
         O19       1.0000    0.21260   0.23330   0.23140   Biso      1.000     O          -0.723658           
         O20       1.0000    0.35400   0.55170   0.02380   Biso      1.000     O          -0.630557           
         O21       1.0000    0.36020   0.32820   0.43530   Biso      1.000     O          -0.681478           
         O22       1.0000    0.13810   0.18520   0.46770   Biso      1.000     O          -0.60096  
         O23       1.0000    0.91410   0.19950   0.31590   Biso      1.000     O          -0.682125           
         O24       1.0000    0.72760   0.90980   0.16200   Biso      1.000     O          -0.326154           
         O25       1.0000    0.77240   0.09020   0.66200   Biso      1.000     O          -0.326153           
         O26       1.0000    0.28740   0.76670   0.73140   Biso      1.000     O          -0.723658           
         O27       1.0000    0.85400   0.55170   0.47620   Biso      1.000     O          -0.630557           
         O28       1.0000    0.97430   0.46830   0.36810   Biso      1.000     O          -0.695095           
         O29       1.0000    0.13980   0.67180   0.93530   Biso      1.000     O          -0.681477           
         O30       1.0000    0.36190   0.81480   0.96770   Biso      1.000     O          -0.60096  
         O31       1.0000    0.58590   0.80050   0.81590   Biso      1.000     O          -0.682125           
         O32       1.0000    0.79540   0.25300   0.56690   Biso      1.000     O          -0.336505           
         Tm1       1.0000    0.64470   0.35770   0.15242   Biso      1.000     Tm          2.163454  
         Tm2       1.0000    0.85530   0.64230   0.65242   Biso      1.000     Tm          2.163454  
         Tm3       1.0000    0.35530   0.64230   0.84758   Biso      1.000     Tm          2.163454  
         Tm4       1.0000    0.14470   0.35770   0.34758   Biso      1.000     Tm          2.163455 