
##########################################################################
#               Crystallographic Information Format file
#               Produced by PyCifRW module
#
#  This is a CIF file.  CIF has been adopted by the International
#  Union of Crystallography as the standard for data archiving and
#  transmission.
#
#  For information on this file format, follow the CIF links at
#  http://www.iucr.org
##########################################################################

data_image0

_cell_length_a                          10.38
_cell_length_b                          10.752
_cell_length_c                          16.025
_cell_angle_alpha                       90
_cell_angle_beta                        106.419
_cell_angle_gamma                       90
_symmetry_space_group_name_H-M          'P 1'
_symmetry_int_tables_number             1
loop_
  _symmetry_equiv_pos_as_xyz
         'x, y, z' 
loop_
  _atom_site_label
  _atom_site_occupancy
  _atom_site_fract_x
  _atom_site_fract_y
  _atom_site_fract_z
  _atom_site_thermal_displace_type
  _atom_site_B_iso_or_equiv
  _atom_site_type_symbol
  _atom_site_charge
         C1        1.0000    0.81790   0.18370   0.15350   Biso      1.000     C          -0.031569           
         C2        1.0000    0.55140   0.30170   0.65620   Biso      1.000     C          -0.001663           
         C3        1.0000    0.42400   0.34830   0.61950   Biso      1.000     C          -0.11714200000000001          
         C4        1.0000    0.31790   0.31630   0.65350   Biso      1.000     C          -0.031569           
         C5        1.0000    0.34550   0.24400   0.72860   Biso      1.000     C          -0.123946           
         C6        1.0000    0.47380   0.19760   0.76610   Biso      1.000     C          -0.016034           
         C7        1.0000    0.57370   0.22360   0.72720   Biso      1.000     C          -0.106577           
         C8        1.0000    0.17640   0.35640   0.60900   Biso      1.000     C          0.660644  
         C9        1.0000    0.50430   0.12780   0.85170   Biso      1.000     C          0.683417  
         C10       1.0000    0.16620   0.16390   0.11910   Biso      1.000     C          0.583353  
         C11       1.0000    0.66620   0.33610   0.61910   Biso      1.000     C          0.583354  
         C12       1.0000    0.05140   0.19830   0.15620   Biso      1.000     C          -0.001663           
         C13       1.0000    0.52620   0.80240   0.23390   Biso      1.000     C          -0.016034           
         C14       1.0000    0.84550   0.25600   0.22860   Biso      1.000     C          -0.123947           
         C15       1.0000    0.97380   0.30240   0.26610   Biso      1.000     C          -0.016034           
         C16       1.0000    0.07370   0.27640   0.22720   Biso      1.000     C          -0.106577           
         C17       1.0000    0.67640   0.14360   0.10900   Biso      1.000     C          0.660644  
         C18       1.0000    0.00430   0.37220   0.35170   Biso      1.000     C          0.683417  
         C19       1.0000    0.33380   0.66390   0.38090   Biso      1.000     C          0.583353  
         C20       1.0000    0.44860   0.69830   0.34380   Biso      1.000     C          -0.001663           
         C21       1.0000    0.57600   0.65170   0.38050   Biso      1.000     C          -0.11714200000000001          
         C22       1.0000    0.92400   0.15170   0.11950   Biso      1.000     C          -0.11714200000000001          
         C23       1.0000    0.99570   0.62780   0.64830   Biso      1.000     C          0.683417  
         C24       1.0000    0.32360   0.85640   0.89100   Biso      1.000     C          0.660644  
         C25       1.0000    0.92630   0.72360   0.77280   Biso      1.000     C          -0.106583           
         C26       1.0000    0.49570   0.87220   0.14830   Biso      1.000     C          0.683417  
         C27       1.0000    0.82360   0.64360   0.39100   Biso      1.000     C          0.660644  
         C28       1.0000    0.42630   0.77640   0.27280   Biso      1.000     C          -0.106577           
         C29       1.0000    0.68210   0.68370   0.34650   Biso      1.000     C          -0.031569           
         C30       1.0000    0.83380   0.83610   0.88090   Biso      1.000     C          0.583353  
         C31       1.0000    0.65450   0.75600   0.27140   Biso      1.000     C          -0.123946           
         C32       1.0000    0.02620   0.69760   0.73390   Biso      1.000     C          -0.016031999999999998         
         C33       1.0000    0.15450   0.74400   0.77140   Biso      1.000     C          -0.123949           
         C34       1.0000    0.18210   0.81630   0.84650   Biso      1.000     C          -0.031566000000000004         
         C35       1.0000    0.07600   0.84830   0.88050   Biso      1.000     C          -0.11714400000000001          
         C36       1.0000    0.94860   0.80170   0.84380   Biso      1.000     C          -0.001656           
         H1        1.0000    0.34210   0.81230   0.25060   Biso      1.000     H          0.134243  
         H2        1.0000    0.09160   0.90130   0.92810   Biso      1.000     H          0.13289700000000002           
         H3        1.0000    0.22280   0.72650   0.74600   Biso      1.000     H          0.122869  
         H4        1.0000    0.84210   0.68770   0.75060   Biso      1.000     H          0.134243  
         H5        1.0000    0.40840   0.40130   0.57190   Biso      1.000     H          0.13289700000000002           
         H6        1.0000    0.65790   0.18770   0.74940   Biso      1.000     H          0.134243  
         H7        1.0000    0.90840   0.09870   0.07190   Biso      1.000     H          0.13289700000000002           
         H8        1.0000    0.15790   0.31230   0.24940   Biso      1.000     H          0.134243  
         H9        1.0000    0.59160   0.59870   0.42810   Biso      1.000     H          0.13289700000000002           
         H10       1.0000    0.72280   0.77350   0.24600   Biso      1.000     H          0.122869  
         H11       1.0000    0.27720   0.22650   0.75400   Biso      1.000     H          0.122869  
         H12       1.0000    0.77720   0.27350   0.25400   Biso      1.000     H          0.122869  
         Nd1       1.0000    0.63446   0.87069   0.97227   Biso      1.000     Nd          2.087822  
         Nd2       1.0000    0.13446   0.62931   0.47227   Biso      1.000     Nd          2.0878229999999998  
         Nd3       1.0000    0.36554   0.12931   0.02773   Biso      1.000     Nd          2.087822  
         Nd4       1.0000    0.86554   0.37069   0.52773   Biso      1.000     Nd          2.0878229999999998  
         O1        1.0000    0.91780   0.69810   0.37210   Biso      1.000     O          -0.6292260000000001           
         O2        1.0000    0.84300   0.55860   0.44680   Biso      1.000     O          -0.745779           
         O3        1.0000    0.22160   0.71390   0.34920   Biso      1.000     O          -0.639764           
         O4        1.0000    0.35540   0.58760   0.44290   Biso      1.000     O          -0.644313           
         O5        1.0000    0.95280   0.32710   0.40700   Biso      1.000     O          -0.731642           
         O6        1.0000    0.08010   0.46500   0.36190   Biso      1.000     O          -0.617591           
         O7        1.0000    0.58220   0.19810   0.12790   Biso      1.000     O          -0.6292260000000001           
         O8        1.0000    0.65700   0.05860   0.05320   Biso      1.000     O          -0.745779           
         O9        1.0000    0.27840   0.21390   0.15080   Biso      1.000     O          -0.639764           
         O10       1.0000    0.14460   0.08760   0.05710   Biso      1.000     O          -0.644313           
         O11       1.0000    0.45280   0.17290   0.90700   Biso      1.000     O          -0.731642           
         O12       1.0000    0.58010   0.03500   0.86190   Biso      1.000     O          -0.617591           
         O13       1.0000    0.08220   0.30190   0.62790   Biso      1.000     O          -0.6292260000000001           
         O14       1.0000    0.15700   0.44140   0.55320   Biso      1.000     O          -0.745779           
         O15       1.0000    0.77840   0.28610   0.65080   Biso      1.000     O          -0.639764           
         O16       1.0000    0.64460   0.41240   0.55710   Biso      1.000     O          -0.644313           
         O17       1.0000    0.04720   0.67290   0.59300   Biso      1.000     O          -0.731642           
         O18       1.0000    0.91990   0.53500   0.63810   Biso      1.000     O          -0.617591           
         O19       1.0000    0.41780   0.80190   0.87210   Biso      1.000     O          -0.6292260000000001           
         O20       1.0000    0.34300   0.94140   0.94680   Biso      1.000     O          -0.745779           
         O21       1.0000    0.72160   0.78610   0.84920   Biso      1.000     O          -0.639764           
         O22       1.0000    0.85540   0.91240   0.94290   Biso      1.000     O          -0.644313           
         O23       1.0000    0.41990   0.96500   0.13810   Biso      1.000     O          -0.617591           
         O24       1.0000    0.54720   0.82710   0.09300   Biso      1.000     O          -0.731642 