
##########################################################################
#               Crystallographic Information Format file
#               Produced by PyCifRW module
#
#  This is a CIF file.  CIF has been adopted by the International
#  Union of Crystallography as the standard for data archiving and
#  transmission.
#
#  For information on this file format, follow the CIF links at
#  http://www.iucr.org
##########################################################################

data_image0

_cell_length_a                          16.4071
_cell_length_b                          11.8075
_cell_length_c                          15.2832
_cell_angle_alpha                       90
_cell_angle_beta                        90
_cell_angle_gamma                       90
_symmetry_space_group_name_H-M          'P 1'
_symmetry_int_tables_number             1
loop_
  _symmetry_equiv_pos_as_xyz
         'x, y, z' 
loop_
  _atom_site_label
  _atom_site_occupancy
  _atom_site_fract_x
  _atom_site_fract_y
  _atom_site_fract_z
  _atom_site_thermal_displace_type
  _atom_site_B_iso_or_equiv
  _atom_site_type_symbol
  _atom_site_charge
         C1        1.0000    0.50000   0.24160   0.77230   Biso      1.000     C          0.6380239999999999  
         C2        1.0000    0.28370   0.79150   0.98140   Biso      1.000     C          -0.21859499999999998          
         C3        1.0000    0.83970   0.33070   0.33680   Biso      1.000     C          -0.022616999999999998         
         C4        1.0000    0.36110   0.78300   0.84950   Biso      1.000     C          -0.232332           
         C5        1.0000    0.37060   0.60370   0.76370   Biso      1.000     C          0.656189  
         C6        1.0000    0.20190   0.62300   0.03330   Biso      1.000     C          0.604336  
         C7        1.0000    0.42900   0.99310   0.91060   Biso      1.000     C          0.30394499999999997           
         C8        1.0000    0.42690   0.08830   0.85590   Biso      1.000     C          -0.256413           
         C9        1.0000    0.70190   0.37700   0.53330   Biso      1.000     C          0.604336  
         C10       1.0000    0.87060   0.39630   0.26370   Biso      1.000     C          0.656189  
         C11       1.0000    0.86110   0.21700   0.34950   Biso      1.000     C          -0.23233  
         C12       1.0000    0.83430   0.15870   0.42340   Biso      1.000     C          0.28131   
         C13       1.0000    0.50000   0.13570   0.83030   Biso      1.000     C          0.014521000000000001          
         C14       1.0000    0.66030   0.66930   0.83680   Biso      1.000     C          -0.022616           
         C15       1.0000    0.71310   0.61890   0.90030   Biso      1.000     C          -0.137679           
         C16       1.0000    0.74260   0.67880   0.97000   Biso      1.000     C          0.010279  
         C17       1.0000    0.71630   0.79150   0.98140   Biso      1.000     C          -0.218596           
         C18       1.0000    0.66570   0.84130   0.92340   Biso      1.000     C          0.281326  
         C19       1.0000    0.63890   0.78300   0.84950   Biso      1.000     C          -0.23233  
         C20       1.0000    0.62940   0.60370   0.76370   Biso      1.000     C          0.656189  
         C21       1.0000    0.79810   0.62300   0.03330   Biso      1.000     C          0.6043350000000001  
         C22       1.0000    0.57100   0.99310   0.91060   Biso      1.000     C          0.30394499999999997           
         C23       1.0000    0.57310   0.08830   0.85590   Biso      1.000     C          -0.256411           
         C24       1.0000    0.78370   0.20850   0.48140   Biso      1.000     C          -0.218577           
         C25       1.0000    0.75740   0.32120   0.47000   Biso      1.000     C          0.01027   
         C26       1.0000    0.78690   0.38110   0.40030   Biso      1.000     C          -0.13767200000000002          
         C27       1.0000    0.25740   0.67880   0.97000   Biso      1.000     C          0.010273000000000001          
         C28       1.0000    0.28690   0.61890   0.90030   Biso      1.000     C          -0.13767200000000002          
         C29       1.0000    0.33430   0.84130   0.92340   Biso      1.000     C          0.281327  
         C30       1.0000    0.92900   0.00690   0.41060   Biso      1.000     C          0.30394499999999997           
         C31       1.0000    0.50000   0.94730   0.93650   Biso      1.000     C          -0.342326           
         C32       1.0000    0.00000   0.75840   0.27230   Biso      1.000     C          0.638025  
         C33       1.0000    0.00000   0.86430   0.33030   Biso      1.000     C          0.014519999999999998          
         C34       1.0000    0.16030   0.33070   0.33680   Biso      1.000     C          -0.022616           
         C35       1.0000    0.21310   0.38110   0.40030   Biso      1.000     C          -0.137679           
         C36       1.0000    0.24260   0.32120   0.47000   Biso      1.000     C          0.010279  
         C37       1.0000    0.21630   0.20850   0.48140   Biso      1.000     C          -0.218596           
         C38       1.0000    0.16570   0.15870   0.42340   Biso      1.000     C          0.281326  
         C39       1.0000    0.33970   0.66930   0.83680   Biso      1.000     C          -0.022616999999999998         
         C40       1.0000    0.12940   0.39630   0.26370   Biso      1.000     C          0.656189  
         C41       1.0000    0.29810   0.37700   0.53330   Biso      1.000     C          0.6043350000000001  
         C42       1.0000    0.07100   0.00690   0.41060   Biso      1.000     C          0.30394499999999997           
         C43       1.0000    0.13890   0.21700   0.34950   Biso      1.000     C          -0.23233  
         C44       1.0000    0.07310   0.91170   0.35590   Biso      1.000     C          -0.256411           
         C45       1.0000    0.00000   0.05270   0.43650   Biso      1.000     C          -0.342326           
         C46       1.0000    0.92690   0.91170   0.35590   Biso      1.000     C          -0.256411           
         H1        1.0000    0.50000   0.88370   0.97250   Biso      1.000     H          0.16070399999999999           
         H2        1.0000    0.77230   0.45670   0.39400   Biso      1.000     H          0.13178800000000002           
         H3        1.0000    0.27230   0.54330   0.89400   Biso      1.000     H          0.13178800000000002           
         H4        1.0000    0.50000   0.43980   0.55250   Biso      1.000     H          0.414576  
         H5        1.0000    0.62250   0.11870   0.83740   Biso      1.000     H          0.15273699999999998           
         H6        1.0000    0.87750   0.88130   0.33740   Biso      1.000     H          0.15273599999999998           
         H7        1.0000    0.26580   0.83220   0.02980   Biso      1.000     H          0.145302  
         H8        1.0000    0.60660   0.81980   0.80830   Biso      1.000     H          0.13463   
         H9        1.0000    0.37750   0.11870   0.83740   Biso      1.000     H          0.15273699999999998           
         H10       1.0000    0.22770   0.45670   0.39400   Biso      1.000     H          0.13178800000000002           
         H11       1.0000    0.00000   0.56020   0.05250   Biso      1.000     H          0.41457700000000003           
         H12       1.0000    0.39340   0.81980   0.80830   Biso      1.000     H          0.13463   
         H13       1.0000    0.72770   0.54330   0.89400   Biso      1.000     H          0.13178800000000002           
         H14       1.0000    0.23420   0.16780   0.52980   Biso      1.000     H          0.145302  
         H15       1.0000    0.00000   0.11630   0.47250   Biso      1.000     H          0.16070399999999999           
         H16       1.0000    0.76580   0.16780   0.52980   Biso      1.000     H          0.14530099999999999           
         H17       1.0000    0.10660   0.18020   0.30830   Biso      1.000     H          0.13463   
         H18       1.0000    0.12250   0.88130   0.33740   Biso      1.000     H          0.15273699999999998           
         H19       1.0000    0.89340   0.18020   0.30830   Biso      1.000     H          0.13463   
         H20       1.0000    0.73420   0.83220   0.02980   Biso      1.000     H          0.145302  
         O1        1.0000    0.00000   0.53630   0.11400   Biso      1.000     O          -0.876599           
         O2        1.0000    0.50000   0.46370   0.61400   Biso      1.000     O          -0.876598           
         O3        1.0000    0.93410   0.72250   0.25030   Biso      1.000     O          -0.54579  
         O4        1.0000    0.56590   0.27750   0.75030   Biso      1.000     O          -0.54579  
         O5        1.0000    0.67490   0.32150   0.59370   Biso      1.000     O          -0.563189           
         O6        1.0000    0.08580   0.34350   0.20800   Biso      1.000     O          -0.631408           
         O7        1.0000    0.14840   0.49640   0.25650   Biso      1.000     O          -0.500413           
         O8        1.0000    0.30960   0.48020   0.52670   Biso      1.000     O          -0.609571           
         O9        1.0000    0.32510   0.32150   0.59370   Biso      1.000     O          -0.563189           
         O10       1.0000    0.14540   0.04740   0.43870   Biso      1.000     O          -0.23059200000000002          
         O11       1.0000    0.06590   0.72250   0.25030   Biso      1.000     O          -0.54579  
         O12       1.0000    0.41420   0.65650   0.70800   Biso      1.000     O          -0.631408           
         O13       1.0000    0.35160   0.50360   0.75650   Biso      1.000     O          -0.500413           
         O14       1.0000    0.19040   0.51980   0.02670   Biso      1.000     O          -0.609571           
         O15       1.0000    0.85460   0.04740   0.43870   Biso      1.000     O          -0.230591           
         O16       1.0000    0.35460   0.95260   0.93870   Biso      1.000     O          -0.23059200000000002          
         O17       1.0000    0.17490   0.67850   0.09370   Biso      1.000     O          -0.563189           
         O18       1.0000    0.58580   0.65650   0.70800   Biso      1.000     O          -0.631408           
         O19       1.0000    0.64840   0.50360   0.75650   Biso      1.000     O          -0.500413           
         O20       1.0000    0.80960   0.51980   0.02670   Biso      1.000     O          -0.609571           
         O21       1.0000    0.82510   0.67850   0.09370   Biso      1.000     O          -0.563189           
         O22       1.0000    0.64540   0.95260   0.93870   Biso      1.000     O          -0.23059200000000002          
         O23       1.0000    0.91420   0.34350   0.20800   Biso      1.000     O          -0.631408           
         O24       1.0000    0.85160   0.49640   0.25650   Biso      1.000     O          -0.500413           
         O25       1.0000    0.69040   0.48020   0.52670   Biso      1.000     O          -0.609571           
         O26       1.0000    0.43410   0.27750   0.75030   Biso      1.000     O          -0.5457890000000001           
         Zn1       1.0000    0.59964   0.40245   0.67098   Biso      1.000     Zn          0.96452   
         Zn2       1.0000    0.00000   0.35077   0.11828   Biso      1.000     Zn          1.118188  
         Zn3       1.0000    0.40036   0.40245   0.67098   Biso      1.000     Zn          0.96452   
         Zn4       1.0000    0.50000   0.64923   0.61828   Biso      1.000     Zn          1.118188  
         Zn5       1.0000    0.90036   0.59755   0.17098   Biso      1.000     Zn          0.964521  
         Zn6       1.0000    0.09964   0.59755   0.17098   Biso      1.000     Zn          0.964521 