
##########################################################################
#               Crystallographic Information Format file
#               Produced by PyCifRW module
#
#  This is a CIF file.  CIF has been adopted by the International
#  Union of Crystallography as the standard for data archiving and
#  transmission.
#
#  For information on this file format, follow the CIF links at
#  http://www.iucr.org
##########################################################################

data_image0

_cell_length_a                          13.811
_cell_length_b                          15.498
_cell_length_c                          15.498
_cell_angle_alpha                       120
_cell_angle_beta                        90
_cell_angle_gamma                       90
_symmetry_space_group_name_H-M          'P 1'
_symmetry_int_tables_number             1
loop_
  _symmetry_equiv_pos_as_xyz
         'x, y, z' 
loop_
  _atom_site_label
  _atom_site_occupancy
  _atom_site_fract_x
  _atom_site_fract_y
  _atom_site_fract_z
  _atom_site_thermal_displace_type
  _atom_site_B_iso_or_equiv
  _atom_site_type_symbol
  _atom_site_charge
         C1        1.0000    0.55120   0.14260   0.73090   Biso      1.000     C          -0.167187           
         C2        1.0000    0.11450   0.63850   0.11050   Biso      1.000     C          0.662137  
         C3        1.0000    0.05120   0.73090   0.14260   Biso      1.000     C          -0.16718  
         C4        1.0000    0.90210   0.63800   0.50280   Biso      1.000     C          0.656429  
         C5        1.0000    0.96640   0.72230   0.57640   Biso      1.000     C          -0.163017           
         C6        1.0000    0.11450   0.88950   0.52800   Biso      1.000     C          0.6621279999999999  
         C7        1.0000    0.05120   0.85740   0.58830   Biso      1.000     C          -0.167193           
         C8        1.0000    0.90210   0.49720   0.13520   Biso      1.000     C          0.656447  
         C9        1.0000    0.96640   0.42360   0.14590   Biso      1.000     C          -0.16300699999999999          
         C10       1.0000    0.11450   0.47200   0.36150   Biso      1.000     C          0.662139  
         C11       1.0000    0.96640   0.85410   0.27770   Biso      1.000     C          -0.16301300000000002          
         C12       1.0000    0.05120   0.41170   0.26910   Biso      1.000     C          -0.167187           
         C13       1.0000    0.53360   0.85410   0.27770   Biso      1.000     C          -0.16301300000000002          
         C14       1.0000    0.38550   0.63850   0.11050   Biso      1.000     C          0.662137  
         C15       1.0000    0.44880   0.73090   0.14260   Biso      1.000     C          -0.16718  
         C16       1.0000    0.59790   0.63800   0.50280   Biso      1.000     C          0.656429  
         C17       1.0000    0.53360   0.72230   0.57640   Biso      1.000     C          -0.163017           
         C18       1.0000    0.38550   0.88950   0.52800   Biso      1.000     C          0.662127  
         C19       1.0000    0.44880   0.85740   0.58830   Biso      1.000     C          -0.167192           
         C20       1.0000    0.59790   0.49720   0.13520   Biso      1.000     C          0.656447  
         C21       1.0000    0.53360   0.42360   0.14590   Biso      1.000     C          -0.16300699999999999          
         C22       1.0000    0.59790   0.86480   0.36200   Biso      1.000     C          0.656438  
         C23       1.0000    0.90210   0.86480   0.36200   Biso      1.000     C          0.656438  
         C24       1.0000    0.61450   0.11050   0.63850   Biso      1.000     C          0.662139  
         C25       1.0000    0.46640   0.27770   0.85410   Biso      1.000     C          -0.16300699999999999          
         C26       1.0000    0.09790   0.50280   0.63800   Biso      1.000     C          0.6564369999999999  
         C27       1.0000    0.03360   0.57640   0.72230   Biso      1.000     C          -0.16301400000000002          
         C28       1.0000    0.88550   0.52800   0.88950   Biso      1.000     C          0.662137  
         C29       1.0000    0.94880   0.58830   0.85740   Biso      1.000     C          -0.16718  
         C30       1.0000    0.09790   0.13520   0.49720   Biso      1.000     C          0.656429  
         C31       1.0000    0.03360   0.14590   0.42360   Biso      1.000     C          -0.163017           
         C32       1.0000    0.88550   0.36150   0.47200   Biso      1.000     C          0.6621279999999999  
         C33       1.0000    0.94880   0.26910   0.41170   Biso      1.000     C          -0.167192           
         C34       1.0000    0.09790   0.36200   0.86480   Biso      1.000     C          0.6564479999999999  
         C35       1.0000    0.03360   0.27770   0.85410   Biso      1.000     C          -0.16300699999999999          
         C36       1.0000    0.88550   0.11050   0.63850   Biso      1.000     C          0.662139  
         C37       1.0000    0.94880   0.14260   0.73090   Biso      1.000     C          -0.167187           
         C38       1.0000    0.40210   0.50280   0.63800   Biso      1.000     C          0.6564369999999999  
         C39       1.0000    0.46640   0.57640   0.72230   Biso      1.000     C          -0.16301300000000002          
         C40       1.0000    0.61450   0.52800   0.88950   Biso      1.000     C          0.662137  
         C41       1.0000    0.55120   0.58830   0.85740   Biso      1.000     C          -0.16718  
         C42       1.0000    0.40210   0.13520   0.49720   Biso      1.000     C          0.656429  
         C43       1.0000    0.46640   0.14590   0.42360   Biso      1.000     C          -0.163017           
         C44       1.0000    0.61450   0.36150   0.47200   Biso      1.000     C          0.6621279999999999  
         C45       1.0000    0.55120   0.26910   0.41170   Biso      1.000     C          -0.167192           
         C46       1.0000    0.40210   0.36200   0.86480   Biso      1.000     C          0.6564479999999999  
         C47       1.0000    0.38550   0.47200   0.36150   Biso      1.000     C          0.662139  
         C48       1.0000    0.44880   0.41170   0.26910   Biso      1.000     C          -0.167187           
         Ce1       1.0000    0.46549   0.66667   0.33334   Biso      1.000     Ce          1.997325  
         Ce2       1.0000    0.03451   0.66667   0.33334   Biso      1.000     Ce          1.997324  
         Ce3       1.0000    0.53451   0.33333   0.66666   Biso      1.000     Ce          1.997325  
         Ce4       1.0000    0.96549   0.33333   0.66666   Biso      1.000     Ce          1.997324  
         Cu1       1.0000    0.75000   0.97516   0.50120   Biso      1.000     Cu          0.973447  
         Cu2       1.0000    0.25000   0.47396   0.49880   Biso      1.000     Cu          0.9734450000000001  
         Cu3       1.0000    0.25000   0.02484   0.52604   Biso      1.000     Cu          0.9734389999999999  
         Cu4       1.0000    0.25000   0.50120   0.97516   Biso      1.000     Cu          0.9734370000000001  
         Cu5       1.0000    0.75000   0.49880   0.47396   Biso      1.000     Cu          0.973434  
         Cu6       1.0000    0.75000   0.52604   0.02484   Biso      1.000     Cu          0.9734360000000001  
         H1        1.0000    0.49030   0.91080   0.30220   Biso      1.000     H          0.11671199999999998           
         H2        1.0000    0.57330   0.85280   0.22540   Biso      1.000     H          0.11990799999999999           
         H3        1.0000    0.99560   0.38490   0.28610   Biso      1.000     H          0.11582100000000001           
         H4        1.0000    0.07330   0.22540   0.85280   Biso      1.000     H          0.119903  
         H5        1.0000    0.00970   0.39140   0.08920   Biso      1.000     H          0.11671300000000001           
         H6        1.0000    0.41200   0.78200   0.13850   Biso      1.000     H          0.11333399999999999           
         H7        1.0000    0.92670   0.37260   0.14720   Biso      1.000     H          0.119903  
         H8        1.0000    0.08800   0.35650   0.21800   Biso      1.000     H          0.11333800000000001           
         H9        1.0000    0.50440   0.71390   0.09880   Biso      1.000     H          0.11582200000000001           
         H10       1.0000    0.49030   0.39140   0.08920   Biso      1.000     H          0.11671400000000001           
         H11       1.0000    0.49030   0.69780   0.60860   Biso      1.000     H          0.11671600000000001           
         H12       1.0000    0.50440   0.90120   0.61510   Biso      1.000     H          0.115825  
         H13       1.0000    0.57330   0.37260   0.14720   Biso      1.000     H          0.119903  
         H14       1.0000    0.99560   0.90120   0.61510   Biso      1.000     H          0.115825  
         H15       1.0000    0.41200   0.35650   0.21800   Biso      1.000     H          0.11333900000000001           
         H16       1.0000    0.50440   0.38490   0.28610   Biso      1.000     H          0.11582100000000001           
         H17       1.0000    0.99030   0.30220   0.91080   Biso      1.000     H          0.11671400000000001           
         H18       1.0000    0.57330   0.77460   0.62740   Biso      1.000     H          0.11990899999999999           
         H19       1.0000    0.08800   0.86150   0.64350   Biso      1.000     H          0.11334100000000001           
         H20       1.0000    0.41200   0.86150   0.64350   Biso      1.000     H          0.11334100000000001           
         H21       1.0000    0.92670   0.77460   0.62740   Biso      1.000     H          0.11990899999999999           
         H22       1.0000    0.00440   0.28610   0.38490   Biso      1.000     H          0.115825  
         H23       1.0000    0.00970   0.69780   0.60860   Biso      1.000     H          0.11671600000000001           
         H24       1.0000    0.91200   0.21800   0.35650   Biso      1.000     H          0.11334000000000001           
         H25       1.0000    0.99030   0.08920   0.39140   Biso      1.000     H          0.11671600000000001           
         H26       1.0000    0.07330   0.14720   0.37260   Biso      1.000     H          0.11990899999999999           
         H27       1.0000    0.00440   0.61510   0.90120   Biso      1.000     H          0.11582200000000001           
         H28       1.0000    0.91200   0.64350   0.86150   Biso      1.000     H          0.11333399999999999           
         H29       1.0000    0.99030   0.60860   0.69780   Biso      1.000     H          0.11671199999999998           
         H30       1.0000    0.07330   0.62740   0.77460   Biso      1.000     H          0.11990799999999999           
         H31       1.0000    0.00440   0.09880   0.71390   Biso      1.000     H          0.11582100000000001           
         H32       1.0000    0.42670   0.62740   0.77460   Biso      1.000     H          0.119907  
         H33       1.0000    0.50970   0.60860   0.69780   Biso      1.000     H          0.11671199999999998           
         H34       1.0000    0.58800   0.64350   0.86150   Biso      1.000     H          0.11333399999999999           
         H35       1.0000    0.49560   0.61510   0.90120   Biso      1.000     H          0.11582100000000001           
         H36       1.0000    0.91200   0.13850   0.78200   Biso      1.000     H          0.11333900000000001           
         H37       1.0000    0.08800   0.78200   0.13850   Biso      1.000     H          0.11333299999999999           
         H38       1.0000    0.99560   0.71390   0.09880   Biso      1.000     H          0.11582200000000001           
         H39       1.0000    0.42670   0.14720   0.37260   Biso      1.000     H          0.11990999999999999           
         H40       1.0000    0.00970   0.91080   0.30220   Biso      1.000     H          0.11671199999999998           
         H41       1.0000    0.92670   0.85280   0.22540   Biso      1.000     H          0.11990799999999999           
         H42       1.0000    0.58800   0.13850   0.78200   Biso      1.000     H          0.11333800000000001           
         H43       1.0000    0.49560   0.09880   0.71390   Biso      1.000     H          0.11582100000000001           
         H44       1.0000    0.42670   0.22540   0.85280   Biso      1.000     H          0.119903  
         H45       1.0000    0.49560   0.28610   0.38490   Biso      1.000     H          0.115825  
         H46       1.0000    0.58800   0.21800   0.35650   Biso      1.000     H          0.11334000000000001           
         H47       1.0000    0.50970   0.08920   0.39140   Biso      1.000     H          0.11671600000000001           
         H48       1.0000    0.50970   0.30220   0.91080   Biso      1.000     H          0.11671400000000001           
         O1        1.0000    0.40490   0.20190   0.58610   Biso      1.000     O          -0.617042           
         O2        1.0000    0.62180   0.43590   0.83130   Biso      1.000     O          -0.6547930000000001           
         O3        1.0000    0.52080   0.52690   0.76120   Biso      1.000     O          -0.21735100000000002          
         O4        1.0000    0.34830   0.06040   0.45920   Biso      1.000     O          -0.5603859999999999           
         O5        1.0000    0.65200   0.39530   0.42270   Biso      1.000     O          -0.557063           
         O6        1.0000    0.65200   0.02740   0.60470   Biso      1.000     O          -0.5570729999999999           
         O7        1.0000    0.52080   0.23430   0.47310   Biso      1.000     O          -0.21731999999999999          
         O8        1.0000    0.34830   0.39880   0.93960   Biso      1.000     O          -0.560392           
         O9        1.0000    0.40490   0.38420   0.79810   Biso      1.000     O          -0.6170899999999999           
         O10       1.0000    0.62180   0.16870   0.60460   Biso      1.000     O          -0.6547930000000001           
         O11       1.0000    0.65200   0.57730   0.97260   Biso      1.000     O          -0.557071           
         O12       1.0000    0.62180   0.39540   0.56410   Biso      1.000     O          -0.654776           
         O13       1.0000    0.40490   0.41390   0.61580   Biso      1.000     O          -0.617054           
         O14       1.0000    0.87820   0.43590   0.83130   Biso      1.000     O          -0.6547930000000001           
         O15       1.0000    0.97920   0.23880   0.76570   Biso      1.000     O          -0.217348           
         O16       1.0000    0.87820   0.16870   0.60460   Biso      1.000     O          -0.6547930000000001           
         O17       1.0000    0.84800   0.02740   0.60470   Biso      1.000     O          -0.5570729999999999           
         O18       1.0000    0.09510   0.38420   0.79810   Biso      1.000     O          -0.6170899999999999           
         O19       1.0000    0.15170   0.39880   0.93960   Biso      1.000     O          -0.560392           
         O20       1.0000    0.97920   0.23430   0.47310   Biso      1.000     O          -0.21731999999999999          
         O21       1.0000    0.87820   0.39540   0.56410   Biso      1.000     O          -0.654776           
         O22       1.0000    0.84800   0.39530   0.42270   Biso      1.000     O          -0.557063           
         O23       1.0000    0.09510   0.20190   0.58610   Biso      1.000     O          -0.617042           
         O24       1.0000    0.15170   0.06040   0.45920   Biso      1.000     O          -0.5603859999999999           
         O25       1.0000    0.97920   0.52690   0.76120   Biso      1.000     O          -0.21735100000000002          
         O26       1.0000    0.52080   0.23880   0.76570   Biso      1.000     O          -0.217348           
         O27       1.0000    0.84800   0.57730   0.97260   Biso      1.000     O          -0.557071           
         O28       1.0000    0.34830   0.54080   0.60120   Biso      1.000     O          -0.560395           
         O29       1.0000    0.84830   0.93960   0.39880   Biso      1.000     O          -0.560396           
         O30       1.0000    0.37820   0.56410   0.39540   Biso      1.000     O          -0.654794           
         O31       1.0000    0.15200   0.60470   0.02740   Biso      1.000     O          -0.557071           
         O32       1.0000    0.09510   0.41390   0.61580   Biso      1.000     O          -0.617054           
         O33       1.0000    0.47920   0.47310   0.23430   Biso      1.000     O          -0.217349           
         O34       1.0000    0.34800   0.42270   0.39530   Biso      1.000     O          -0.557072           
         O35       1.0000    0.59510   0.58610   0.20190   Biso      1.000     O          -0.6170899999999999           
         O36       1.0000    0.65170   0.45920   0.06040   Biso      1.000     O          -0.560392           
         O37       1.0000    0.47920   0.76120   0.52690   Biso      1.000     O          -0.21732100000000001          
         O38       1.0000    0.37820   0.83130   0.43590   Biso      1.000     O          -0.654776           
         O39       1.0000    0.34800   0.97260   0.57730   Biso      1.000     O          -0.557063           
         O40       1.0000    0.59510   0.61580   0.41390   Biso      1.000     O          -0.617041           
         O41       1.0000    0.65170   0.60120   0.54080   Biso      1.000     O          -0.5603859999999999           
         O42       1.0000    0.47920   0.76570   0.23880   Biso      1.000     O          -0.21735100000000002          
         O43       1.0000    0.37820   0.60460   0.16870   Biso      1.000     O          -0.6547930000000001           
         O44       1.0000    0.34800   0.60470   0.02740   Biso      1.000     O          -0.557071           
         O45       1.0000    0.59510   0.79810   0.38420   Biso      1.000     O          -0.617055           
         O46       1.0000    0.65170   0.93960   0.39880   Biso      1.000     O          -0.560396           
         O47       1.0000    0.02080   0.47310   0.23430   Biso      1.000     O          -0.217349           
         O48       1.0000    0.12180   0.56410   0.39540   Biso      1.000     O          -0.654794           
         O49       1.0000    0.15200   0.42270   0.39530   Biso      1.000     O          -0.557072           
         O50       1.0000    0.90490   0.58610   0.20190   Biso      1.000     O          -0.6170899999999999           
         O51       1.0000    0.84830   0.45920   0.06040   Biso      1.000     O          -0.560392           
         O52       1.0000    0.02080   0.76120   0.52690   Biso      1.000     O          -0.21731999999999999          
         O53       1.0000    0.12180   0.83130   0.43590   Biso      1.000     O          -0.654776           
         O54       1.0000    0.15200   0.97260   0.57730   Biso      1.000     O          -0.557063           
         O55       1.0000    0.90490   0.61580   0.41390   Biso      1.000     O          -0.617041           
         O56       1.0000    0.84830   0.60120   0.54080   Biso      1.000     O          -0.5603859999999999           
         O57       1.0000    0.02080   0.76570   0.23880   Biso      1.000     O          -0.21735100000000002          
         O58       1.0000    0.12180   0.60460   0.16870   Biso      1.000     O          -0.6547930000000001           
         O59       1.0000    0.90490   0.79810   0.38420   Biso      1.000     O          -0.617055           
         O60       1.0000    0.15170   0.54080   0.60120   Biso      1.000     O          -0.560395 