
##########################################################################
#               Crystallographic Information Format file
#               Produced by PyCifRW module
#
#  This is a CIF file.  CIF has been adopted by the International
#  Union of Crystallography as the standard for data archiving and
#  transmission.
#
#  For information on this file format, follow the CIF links at
#  http://www.iucr.org
##########################################################################

data_image0

_cell_length_a                          13.6688
_cell_length_b                          13.6688
_cell_length_c                          19.3657
_cell_angle_alpha                       96.2809
_cell_angle_beta                        96.2809
_cell_angle_gamma                       143.586
_symmetry_space_group_name_H-M          'P 1'
_symmetry_int_tables_number             1
loop_
  _symmetry_equiv_pos_as_xyz
         'x, y, z' 
loop_
  _atom_site_label
  _atom_site_occupancy
  _atom_site_fract_x
  _atom_site_fract_y
  _atom_site_fract_z
  _atom_site_thermal_displace_type
  _atom_site_B_iso_or_equiv
  _atom_site_type_symbol
  _atom_site_charge
         C1        1.0000    0.65882   0.29072   0.06757   Biso      1.000     C          0.095232  
         C2        1.0000    0.51051   0.13731   0.94671   Biso      1.000     C          0.105544  
         C3        1.0000    0.20207   0.97049   0.42908   Biso      1.000     C          0.128856  
         C4        1.0000    0.41091   0.15611   0.53931   Biso      1.000     C          0.10306   
         C5        1.0000    0.38717   0.04049   0.54813   Biso      1.000     C          -0.186768           
         C6        1.0000    0.30703   0.32067   0.81885   Biso      1.000     C          0.601998  
         C7        1.0000    0.27684   0.32890   0.74237   Biso      1.000     C          -0.28221  
         C8        1.0000    0.23427   0.24095   0.68191   Biso      1.000     C          0.068308  
         C9        1.0000    0.24890   0.29434   0.61382   Biso      1.000     C          0.612868  
         C10       1.0000    0.19409   0.09767   0.67038   Biso      1.000     C          -0.402452           
         C11       1.0000    0.03031   0.93975   0.60263   Biso      1.000     C          0.70025   
         C12       1.0000    0.77489   0.31449   0.06449   Biso      1.000     C          -0.191538           
         C13       1.0000    0.85002   0.17490   0.93356   Biso      1.000     C          -0.192678           
         C14       1.0000    0.97049   0.20207   0.92908   Biso      1.000     C          0.128858  
         C15       1.0000    0.17490   0.85002   0.43356   Biso      1.000     C          -0.192676           
         C16       1.0000    0.15611   0.41091   0.03931   Biso      1.000     C          0.103059  
         C17       1.0000    0.88350   0.26978   0.99394   Biso      1.000     C          0.093057  
         C18       1.0000    0.75777   0.24355   0.99966   Biso      1.000     C          0.125986  
         C19       1.0000    0.62216   0.15502   0.93999   Biso      1.000     C          -0.198319           
         C20       1.0000    0.32067   0.30703   0.31885   Biso      1.000     C          0.601997  
         C21       1.0000    0.32890   0.27684   0.24237   Biso      1.000     C          -0.28221  
         C22       1.0000    0.24095   0.23427   0.18191   Biso      1.000     C          0.068308  
         C23       1.0000    0.29434   0.24890   0.11382   Biso      1.000     C          0.612868  
         C24       1.0000    0.09767   0.19409   0.17038   Biso      1.000     C          -0.402455           
         C25       1.0000    0.93975   0.03031   0.10263   Biso      1.000     C          0.700252  
         C26       1.0000    0.31449   0.77489   0.56449   Biso      1.000     C          -0.191558           
         C27       1.0000    0.29072   0.65882   0.56757   Biso      1.000     C          0.095251  
         C28       1.0000    0.13731   0.51051   0.44671   Biso      1.000     C          0.105545  
         C29       1.0000    0.15502   0.62216   0.43999   Biso      1.000     C          -0.19833  
         C30       1.0000    0.04049   0.38717   0.04813   Biso      1.000     C          -0.186763           
         C31       1.0000    0.67933   0.69297   0.68115   Biso      1.000     C          0.601997  
         C32       1.0000    0.67110   0.72316   0.75763   Biso      1.000     C          -0.28221  
         C33       1.0000    0.75905   0.76573   0.81809   Biso      1.000     C          0.068308  
         C34       1.0000    0.82510   0.14998   0.56644   Biso      1.000     C          -0.192678           
         C35       1.0000    0.79793   0.02951   0.57092   Biso      1.000     C          0.128858  
         C36       1.0000    0.58909   0.84389   0.46069   Biso      1.000     C          0.10306   
         C37       1.0000    0.61283   0.95951   0.45187   Biso      1.000     C          -0.186768           
         C38       1.0000    0.73022   0.11650   0.50606   Biso      1.000     C          0.093061  
         C39       1.0000    0.75645   0.24223   0.50034   Biso      1.000     C          0.125981  
         C40       1.0000    0.84498   0.37784   0.56001   Biso      1.000     C          -0.198327           
         C41       1.0000    0.86269   0.48949   0.55329   Biso      1.000     C          0.105552  
         C42       1.0000    0.70928   0.34118   0.43243   Biso      1.000     C          0.095231  
         C43       1.0000    0.68551   0.22511   0.43551   Biso      1.000     C          -0.191533           
         C44       1.0000    0.06025   0.96969   0.89737   Biso      1.000     C          0.700252  
         C45       1.0000    0.90233   0.80591   0.82962   Biso      1.000     C          -0.402455           
         C46       1.0000    0.69297   0.67933   0.18115   Biso      1.000     C          0.601997  
         C47       1.0000    0.72316   0.67110   0.25763   Biso      1.000     C          -0.28221  
         C48       1.0000    0.76573   0.75905   0.31809   Biso      1.000     C          0.068307  
         C49       1.0000    0.75110   0.70566   0.38618   Biso      1.000     C          0.612867  
         C50       1.0000    0.80591   0.90233   0.32962   Biso      1.000     C          -0.402452           
         C51       1.0000    0.96969   0.06025   0.39737   Biso      1.000     C          0.70025   
         C52       1.0000    0.22511   0.68551   0.93551   Biso      1.000     C          -0.191558           
         C53       1.0000    0.34118   0.70928   0.93243   Biso      1.000     C          0.095251  
         C54       1.0000    0.48949   0.86269   0.05329   Biso      1.000     C          0.105545  
         C55       1.0000    0.37784   0.84498   0.06001   Biso      1.000     C          -0.19833  
         C56       1.0000    0.24223   0.75645   0.00034   Biso      1.000     C          0.125998  
         C57       1.0000    0.11650   0.73022   0.00606   Biso      1.000     C          0.093048  
         C58       1.0000    0.95951   0.61283   0.95187   Biso      1.000     C          -0.186768           
         C59       1.0000    0.84389   0.58909   0.96069   Biso      1.000     C          0.103064  
         C60       1.0000    0.02951   0.79793   0.07092   Biso      1.000     C          0.128855  
         C61       1.0000    0.14998   0.82510   0.06644   Biso      1.000     C          -0.192667           
         C62       1.0000    0.70566   0.75110   0.88618   Biso      1.000     C          0.612868  
         C63       1.0000    0.24355   0.75777   0.49966   Biso      1.000     C          0.125997  
         C64       1.0000    0.26978   0.88350   0.49394   Biso      1.000     C          0.09306   
         H1        1.0000    0.52127   0.61461   0.07729   Biso      1.000     H          0.361672  
         H2        1.0000    0.94230   0.13350   0.88730   Biso      1.000     H          0.101301  
         H3        1.0000    0.26360   0.49580   0.07650   Biso      1.000     H          0.101112  
         H4        1.0000    0.60540   0.10600   0.89420   Biso      1.000     H          0.127507  
         H5        1.0000    0.74500   0.09100   0.89490   Biso      1.000     H          0.121112  
         H6        1.0000    0.06930   0.45230   0.09190   Biso      1.000     H          0.117462  
         H7        1.0000    0.93780   0.82460   0.78630   Biso      1.000     H          0.163346  
         H8        1.0000    0.59190   0.70810   0.75930   Biso      1.000     H          0.13498   
         H9        1.0000    0.85760   0.70720   0.83660   Biso      1.000     H          0.147349  
         H10       1.0000    0.41880   0.07560   0.90490   Biso      1.000     H          0.105621  
         H11       1.0000    0.62040   0.13260   0.39320   Biso      1.000     H          0.129122  
         H12       1.0000    0.66210   0.32770   0.38730   Biso      1.000     H          0.106282  
         H13       1.0000    0.92440   0.58120   0.59510   Biso      1.000     H          0.105621  
         H14       1.0000    0.89400   0.39460   0.60580   Biso      1.000     H          0.127507  
         H15       1.0000    0.54770   0.93070   0.40810   Biso      1.000     H          0.117462  
         H16       1.0000    0.50420   0.73640   0.42350   Biso      1.000     H          0.101113  
         H17       1.0000    0.86650   0.05770   0.61270   Biso      1.000     H          0.101301  
         H18       1.0000    0.90900   0.25500   0.60510   Biso      1.000     H          0.121112  
         H19       1.0000    0.61461   0.52127   0.57729   Biso      1.000     H          0.361673  
         H20       1.0000    0.67230   0.33790   0.11270   Biso      1.000     H          0.106282  
         H21       1.0000    0.47873   0.38539   0.92271   Biso      1.000     H          0.361673  
         H22       1.0000    0.17540   0.06220   0.71370   Biso      1.000     H          0.163346  
         H23       1.0000    0.37960   0.86740   0.60680   Biso      1.000     H          0.129123  
         H24       1.0000    0.06220   0.17540   0.21370   Biso      1.000     H          0.163346  
         H25       1.0000    0.86740   0.37960   0.10680   Biso      1.000     H          0.129122  
         H26       1.0000    0.40810   0.29190   0.24070   Biso      1.000     H          0.13498   
         H27       1.0000    0.38539   0.47873   0.42271   Biso      1.000     H          0.361672  
         H28       1.0000    0.25500   0.90900   0.10510   Biso      1.000     H          0.121112  
         H29       1.0000    0.05770   0.86650   0.11270   Biso      1.000     H          0.101302  
         H30       1.0000    0.33790   0.67230   0.61270   Biso      1.000     H          0.106281  
         H31       1.0000    0.73640   0.50420   0.92350   Biso      1.000     H          0.101112  
         H32       1.0000    0.39460   0.89400   0.10580   Biso      1.000     H          0.127507  
         H33       1.0000    0.58120   0.92440   0.09510   Biso      1.000     H          0.105621  
         H34       1.0000    0.32770   0.66210   0.88730   Biso      1.000     H          0.106281  
         H35       1.0000    0.13260   0.62040   0.89320   Biso      1.000     H          0.129123  
         H36       1.0000    0.82460   0.93780   0.28630   Biso      1.000     H          0.163346  
         H37       1.0000    0.70720   0.85760   0.33660   Biso      1.000     H          0.147349  
         H38       1.0000    0.70810   0.59190   0.25930   Biso      1.000     H          0.13498   
         H39       1.0000    0.93070   0.54770   0.90810   Biso      1.000     H          0.117462  
         H40       1.0000    0.07560   0.41880   0.40490   Biso      1.000     H          0.105621  
         H41       1.0000    0.14240   0.29280   0.16340   Biso      1.000     H          0.147349  
         H42       1.0000    0.45230   0.06930   0.59190   Biso      1.000     H          0.117462  
         H43       1.0000    0.10600   0.60540   0.39420   Biso      1.000     H          0.127507  
         H44       1.0000    0.29190   0.40810   0.74070   Biso      1.000     H          0.13498   
         H45       1.0000    0.09100   0.74500   0.39490   Biso      1.000     H          0.121112  
         H46       1.0000    0.13350   0.94230   0.38730   Biso      1.000     H          0.101302  
         H47       1.0000    0.29280   0.14240   0.66340   Biso      1.000     H          0.147349  
         H48       1.0000    0.49580   0.26360   0.57650   Biso      1.000     H          0.101113  
         N1        1.0000    0.31762   0.12010   0.47995   Biso      1.000     N          -0.179992           
         N2        1.0000    0.52647   0.20319   0.00910   Biso      1.000     N          -0.211218           
         N3        1.0000    0.20319   0.52647   0.50910   Biso      1.000     N          -0.211221           
         N4        1.0000    0.12010   0.31762   0.97995   Biso      1.000     N          -0.179992           
         N5        1.0000    0.47353   0.79681   0.99090   Biso      1.000     N          -0.21122  
         N6        1.0000    0.87990   0.68238   0.02005   Biso      1.000     N          -0.179992           
         N7        1.0000    0.68238   0.87990   0.52005   Biso      1.000     N          -0.179992           
         N8        1.0000    0.79681   0.47353   0.49090   Biso      1.000     N          -0.211219           
         O1        1.0000    0.16108   0.98464   0.92670   Biso      1.000     O          -0.609571           
         O2        1.0000    0.72022   0.63154   0.67178   Biso      1.000     O          -0.556444           
         O3        1.0000    0.08279   0.07499   0.91929   Biso      1.000     O          -0.559033           
         O4        1.0000    0.63238   0.72120   0.63411   Biso      1.000     O          -0.572849           
         O5        1.0000    0.61461   0.52127   0.52565   Biso      1.000     O          -0.878221           
         O6        1.0000    0.38539   0.47873   0.47435   Biso      1.000     O          -0.878221           
         O7        1.0000    0.83892   0.01536   0.07330   Biso      1.000     O          -0.609571           
         O8        1.0000    0.91721   0.92501   0.08071   Biso      1.000     O          -0.559033           
         O9        1.0000    0.27796   0.29898   0.07316   Biso      1.000     O          -0.537374           
         O10       1.0000    0.35319   0.21123   0.10537   Biso      1.000     O          -0.578262           
         O11       1.0000    0.36762   0.27880   0.36589   Biso      1.000     O          -0.572849           
         O12       1.0000    0.64681   0.78877   0.89463   Biso      1.000     O          -0.578262           
         O13       1.0000    0.72204   0.70102   0.92684   Biso      1.000     O          -0.537374           
         O14       1.0000    0.72120   0.63238   0.13411   Biso      1.000     O          -0.572848           
         O15       1.0000    0.78877   0.64681   0.39463   Biso      1.000     O          -0.578262           
         O16       1.0000    0.70102   0.72204   0.42684   Biso      1.000     O          -0.537374           
         O17       1.0000    0.07499   0.08279   0.41929   Biso      1.000     O          -0.559033           
         O18       1.0000    0.98464   0.16108   0.42670   Biso      1.000     O          -0.609572           
         O19       1.0000    0.52127   0.61461   0.02565   Biso      1.000     O          -0.878221           
         O20       1.0000    0.27978   0.36846   0.32822   Biso      1.000     O          -0.556444           
         O21       1.0000    0.36846   0.27978   0.82822   Biso      1.000     O          -0.556444           
         O22       1.0000    0.27880   0.36762   0.86589   Biso      1.000     O          -0.572849           
         O23       1.0000    0.21123   0.35319   0.60537   Biso      1.000     O          -0.578262           
         O24       1.0000    0.29898   0.27796   0.57316   Biso      1.000     O          -0.537374           
         O25       1.0000    0.63154   0.72022   0.17178   Biso      1.000     O          -0.556444           
         O26       1.0000    0.92501   0.91721   0.58071   Biso      1.000     O          -0.559033           
         O27       1.0000    0.01536   0.83892   0.57330   Biso      1.000     O          -0.609572           
         O28       1.0000    0.47873   0.38539   0.97435   Biso      1.000     O          -0.878221           
         Zn1       1.0000    0.80173   0.62613   0.49164   Biso      1.000     Zn          0.869921  
         Zn2       1.0000    0.62613   0.80173   0.99164   Biso      1.000     Zn          0.86992   
         Zn3       1.0000    0.19827   0.37387   0.50836   Biso      1.000     Zn          0.86992   
         Zn4       1.0000    0.37387   0.19827   0.00836   Biso      1.000     Zn          0.869919  
         Zn5       1.0000    0.29484   0.34820   0.97113   Biso      1.000     Zn          0.91498   
         Zn6       1.0000    0.34820   0.29484   0.47113   Biso      1.000     Zn          0.91498   
         Zn7       1.0000    0.65180   0.70516   0.52887   Biso      1.000     Zn          0.91498   
         Zn8       1.0000    0.70516   0.65180   0.02887   Biso      1.000     Zn          0.91498 