
##########################################################################
#               Crystallographic Information Format file
#               Produced by PyCifRW module
#
#  This is a CIF file.  CIF has been adopted by the International
#  Union of Crystallography as the standard for data archiving and
#  transmission.
#
#  For information on this file format, follow the CIF links at
#  http://www.iucr.org
##########################################################################

data_image0

_cell_length_a                          11.442
_cell_length_b                          13.373
_cell_length_c                          15.807
_cell_angle_alpha                       90
_cell_angle_beta                        90
_cell_angle_gamma                       101.36
_symmetry_space_group_name_H-M          'P 1'
_symmetry_int_tables_number             1
loop_
  _symmetry_equiv_pos_as_xyz
         'x, y, z' 
loop_
  _atom_site_label
  _atom_site_occupancy
  _atom_site_fract_x
  _atom_site_fract_y
  _atom_site_fract_z
  _atom_site_thermal_displace_type
  _atom_site_B_iso_or_equiv
  _atom_site_type_symbol
  _atom_site_charge
         C1        1.0000    0.81040   0.57000   0.14036   Biso      1.000     C          0.105456  
         C2        1.0000    0.56240   0.32011   0.23694   Biso      1.000     C          -0.23287600000000003          
         C3        1.0000    0.38630   0.20623   0.16990   Biso      1.000     C          -0.41153199999999995          
         C4        1.0000    0.26260   0.23160   0.18131   Biso      1.000     C          0.625296  
         C5        1.0000    0.57520   0.25380   0.30978   Biso      1.000     C          0.616575  
         C6        1.0000    0.21562   0.67948   0.03286   Biso      1.000     C          -0.181361           
         C7        1.0000    0.33459   0.67663   0.03411   Biso      1.000     C          0.105994  
         C8        1.0000    0.30362   0.54464   0.12717   Biso      1.000     C          0.099355  
         C9        1.0000    0.18313   0.54422   0.12887   Biso      1.000     C          -0.174988           
         C10       1.0000    0.13497   0.61106   0.08066   Biso      1.000     C          0.11091300000000001           
         C11       1.0000    0.00529   0.61223   0.08000   Biso      1.000     C          0.112376  
         C12       1.0000    0.95295   0.65960   0.01685   Biso      1.000     C          -0.18751600000000002          
         C13       1.0000    0.48135   0.30011   0.17453   Biso      1.000     C          0.0692    
         C14       1.0000    0.83276   0.65920   0.01999   Biso      1.000     C          0.103076  
         C15       1.0000    0.48254   0.87721   0.39441   Biso      1.000     C          0.575571  
         C16       1.0000    0.48135   0.80011   0.32547   Biso      1.000     C          0.06918099999999999           
         C17       1.0000    0.56240   0.82011   0.26306   Biso      1.000     C          -0.232857           
         C18       1.0000    0.38630   0.70623   0.33010   Biso      1.000     C          -0.41153  
         C19       1.0000    0.26260   0.73160   0.31869   Biso      1.000     C          0.6252939999999999  
         C20       1.0000    0.78438   0.82052   0.53286   Biso      1.000     C          -0.18136300000000002          
         C21       1.0000    0.66541   0.82337   0.53411   Biso      1.000     C          0.105993  
         C22       1.0000    0.69638   0.95536   0.62717   Biso      1.000     C          0.099354  
         C23       1.0000    0.81687   0.95578   0.62887   Biso      1.000     C          -0.174989           
         C24       1.0000    0.86503   0.88894   0.58066   Biso      1.000     C          0.11091199999999998           
         C25       1.0000    0.99471   0.88777   0.58000   Biso      1.000     C          0.112377  
         C26       1.0000    0.93060   0.56780   0.14365   Biso      1.000     C          -0.1888   
         C27       1.0000    0.04705   0.84040   0.51685   Biso      1.000     C          -0.18751600000000002          
         C28       1.0000    0.48254   0.37721   0.10559   Biso      1.000     C          0.575569  
         C29       1.0000    0.81040   0.07000   0.35964   Biso      1.000     C          0.105456  
         C30       1.0000    0.78438   0.32052   0.96714   Biso      1.000     C          -0.18136300000000002          
         C31       1.0000    0.66541   0.32337   0.96589   Biso      1.000     C          0.105993  
         C32       1.0000    0.69638   0.45536   0.87283   Biso      1.000     C          0.099354  
         C33       1.0000    0.81687   0.45578   0.87113   Biso      1.000     C          -0.174989           
         C34       1.0000    0.86503   0.38894   0.91934   Biso      1.000     C          0.11091300000000001           
         C35       1.0000    0.99471   0.38777   0.92000   Biso      1.000     C          0.112376  
         C36       1.0000    0.04705   0.34040   0.98315   Biso      1.000     C          -0.18751600000000002          
         C37       1.0000    0.16724   0.34080   0.98001   Biso      1.000     C          0.103076  
         C38       1.0000    0.18960   0.43000   0.85964   Biso      1.000     C          0.105456  
         C39       1.0000    0.06940   0.43220   0.85635   Biso      1.000     C          -0.188801           
         C40       1.0000    0.51746   0.12279   0.60559   Biso      1.000     C          0.575571  
         C41       1.0000    0.93060   0.06780   0.35635   Biso      1.000     C          -0.188804           
         C42       1.0000    0.51865   0.19989   0.67453   Biso      1.000     C          0.06918200000000001           
         C43       1.0000    0.61370   0.29377   0.66990   Biso      1.000     C          -0.41153  
         C44       1.0000    0.73740   0.26840   0.68131   Biso      1.000     C          0.6252949999999999  
         C45       1.0000    0.42480   0.24620   0.80978   Biso      1.000     C          0.616574  
         C46       1.0000    0.21562   0.17948   0.46714   Biso      1.000     C          -0.181362           
         C47       1.0000    0.33459   0.17663   0.46589   Biso      1.000     C          0.105994  
         C48       1.0000    0.30362   0.04464   0.37283   Biso      1.000     C          0.099354  
         C49       1.0000    0.18313   0.04422   0.37113   Biso      1.000     C          -0.174988           
         C50       1.0000    0.13497   0.11106   0.41934   Biso      1.000     C          0.11091300000000001           
         C51       1.0000    0.00529   0.11223   0.42000   Biso      1.000     C          0.11238   
         C52       1.0000    0.95295   0.15960   0.48315   Biso      1.000     C          -0.18751700000000002          
         C53       1.0000    0.83276   0.15920   0.48001   Biso      1.000     C          0.103076  
         C54       1.0000    0.43760   0.17989   0.73694   Biso      1.000     C          -0.232855           
         C55       1.0000    0.16724   0.84080   0.51999   Biso      1.000     C          0.103076  
         C56       1.0000    0.57520   0.75380   0.19022   Biso      1.000     C          0.616574  
         C57       1.0000    0.06940   0.93220   0.64365   Biso      1.000     C          -0.188802           
         C58       1.0000    0.51746   0.62279   0.89441   Biso      1.000     C          0.575571  
         C59       1.0000    0.51865   0.69989   0.82547   Biso      1.000     C          0.06918200000000001           
         C60       1.0000    0.43760   0.67989   0.76306   Biso      1.000     C          -0.232856           
         C61       1.0000    0.61370   0.79377   0.83010   Biso      1.000     C          -0.41153100000000004          
         C62       1.0000    0.73740   0.76840   0.81869   Biso      1.000     C          0.6252949999999999  
         C63       1.0000    0.42480   0.74620   0.69022   Biso      1.000     C          0.6165729999999999  
         C64       1.0000    0.18960   0.93000   0.64036   Biso      1.000     C          0.105457  
         H1        1.0000    0.61590   0.88210   0.26600   Biso      1.000     H          0.148848  
         H2        1.0000    0.96100   0.53640   0.18880   Biso      1.000     H          0.136018  
         H3        1.0000    0.76220   0.53950   0.18440   Biso      1.000     H          0.097777  
         H4        1.0000    0.33320   0.49770   0.16020   Biso      1.000     H          0.10321099999999998           
         H5        1.0000    0.13360   0.49780   0.16330   Biso      1.000     H          0.132017  
         H6        1.0000    0.39960   0.65880   0.28640   Biso      1.000     H          0.159167  
         H7        1.0000    0.38600   0.72370   0.00140   Biso      1.000     H          0.099102  
         H8        1.0000    0.99880   0.69160   0.97230   Biso      1.000     H          0.132159  
         H9        1.0000    0.39020   0.67350   0.38450   Biso      1.000     H          0.170533  
         H10       1.0000    0.86640   0.00220   0.66330   Biso      1.000     H          0.132017  
         H11       1.0000    0.61400   0.77630   0.50140   Biso      1.000     H          0.099102  
         H12       1.0000    0.66680   0.00230   0.66020   Biso      1.000     H          0.10321099999999998           
         H13       1.0000    0.18860   0.72770   0.99970   Biso      1.000     H          0.13206600000000002           
         H14       1.0000    0.00120   0.80840   0.47230   Biso      1.000     H          0.132159  
         H15       1.0000    0.19980   0.80600   0.47800   Biso      1.000     H          0.096263  
         H16       1.0000    0.23780   0.96050   0.68440   Biso      1.000     H          0.097777  
         H17       1.0000    0.03900   0.96360   0.68880   Biso      1.000     H          0.136019  
         H18       1.0000    0.38410   0.61790   0.76600   Biso      1.000     H          0.148846  
         H19       1.0000    0.60040   0.84120   0.78640   Biso      1.000     H          0.159167  
         H20       1.0000    0.60980   0.82650   0.88450   Biso      1.000     H          0.170532  
         H21       1.0000    0.81140   0.77230   0.49970   Biso      1.000     H          0.13206700000000002           
         H22       1.0000    0.39020   0.17350   0.11550   Biso      1.000     H          0.170533  
         H23       1.0000    0.80020   0.69400   0.97800   Biso      1.000     H          0.096263  
         H24       1.0000    0.61590   0.38210   0.23400   Biso      1.000     H          0.148849  
         H25       1.0000    0.81140   0.27230   0.00030   Biso      1.000     H          0.13206800000000002           
         H26       1.0000    0.39960   0.15880   0.21360   Biso      1.000     H          0.159167  
         H27       1.0000    0.61400   0.27630   0.99860   Biso      1.000     H          0.099102  
         H28       1.0000    0.66680   0.50230   0.83980   Biso      1.000     H          0.10321099999999998           
         H29       1.0000    0.86640   0.50220   0.83670   Biso      1.000     H          0.132017  
         H30       1.0000    0.19980   0.30600   0.02200   Biso      1.000     H          0.096263  
         H31       1.0000    0.23780   0.46050   0.81560   Biso      1.000     H          0.097777  
         H32       1.0000    0.03900   0.46360   0.81120   Biso      1.000     H          0.136019  
         H33       1.0000    0.38410   0.11790   0.73400   Biso      1.000     H          0.148846  
         H34       1.0000    0.00120   0.30840   0.02770   Biso      1.000     H          0.132159  
         H35       1.0000    0.60980   0.32650   0.61550   Biso      1.000     H          0.170531  
         H36       1.0000    0.60040   0.34120   0.71360   Biso      1.000     H          0.159166  
         H37       1.0000    0.96100   0.03640   0.31120   Biso      1.000     H          0.136019  
         H38       1.0000    0.76220   0.03950   0.31560   Biso      1.000     H          0.097777  
         H39       1.0000    0.99880   0.19160   0.52770   Biso      1.000     H          0.132158  
         H40       1.0000    0.13360   0.99780   0.33670   Biso      1.000     H          0.132017  
         H41       1.0000    0.80020   0.19400   0.52200   Biso      1.000     H          0.096262  
         H42       1.0000    0.33320   0.99770   0.33980   Biso      1.000     H          0.10321099999999998           
         H43       1.0000    0.38600   0.22370   0.49860   Biso      1.000     H          0.099102  
         H44       1.0000    0.18860   0.22770   0.50030   Biso      1.000     H          0.13206600000000002           
         N1        1.0000    0.38010   0.61064   0.07928   Biso      1.000     N          -0.223518           
         N2        1.0000    0.61990   0.38936   0.92072   Biso      1.000     N          -0.223516           
         N3        1.0000    0.76052   0.11193   0.42026   Biso      1.000     N          -0.202185           
         N4        1.0000    0.38010   0.11064   0.42072   Biso      1.000     N          -0.223517           
         N5        1.0000    0.61990   0.88936   0.57928   Biso      1.000     N          -0.223517           
         N6        1.0000    0.23948   0.88807   0.57974   Biso      1.000     N          -0.202185           
         N7        1.0000    0.23948   0.38807   0.92026   Biso      1.000     N          -0.202184           
         N8        1.0000    0.76052   0.61193   0.07974   Biso      1.000     N          -0.202185           
         O1        1.0000    0.17526   0.16124   0.15627   Biso      1.000     O          -0.377867           
         O2        1.0000    0.24837   0.30915   0.21074   Biso      1.000     O          -0.45992700000000003          
         O3        1.0000    0.54923   0.96269   0.38545   Biso      1.000     O          -0.5543239999999999           
         O4        1.0000    0.58348   0.28831   0.38190   Biso      1.000     O          -0.49695500000000004          
         O5        1.0000    0.57745   0.16130   0.29479   Biso      1.000     O          -0.5097619999999999           
         O6        1.0000    0.41717   0.84827   0.45734   Biso      1.000     O          -0.533119           
         O7        1.0000    0.54923   0.46269   0.11455   Biso      1.000     O          -0.5543239999999999           
         O8        1.0000    0.42255   0.33870   0.79479   Biso      1.000     O          -0.5097649999999999           
         O9        1.0000    0.41652   0.21169   0.88190   Biso      1.000     O          -0.49695900000000004          
         O10       1.0000    0.75163   0.19085   0.71074   Biso      1.000     O          -0.45992799999999995          
         O11       1.0000    0.82474   0.33876   0.65627   Biso      1.000     O          -0.37786  
         O12       1.0000    0.41717   0.34827   0.04266   Biso      1.000     O          -0.533119           
         O13       1.0000    0.57745   0.66130   0.20521   Biso      1.000     O          -0.509763           
         O14       1.0000    0.45077   0.03731   0.61455   Biso      1.000     O          -0.554325           
         O15       1.0000    0.24837   0.80915   0.28926   Biso      1.000     O          -0.459926           
         O16       1.0000    0.17526   0.66124   0.34373   Biso      1.000     O          -0.377864           
         O17       1.0000    0.45077   0.53731   0.88545   Biso      1.000     O          -0.5543239999999999           
         O18       1.0000    0.58283   0.65173   0.95734   Biso      1.000     O          -0.5331199999999999           
         O19       1.0000    0.42255   0.83870   0.70521   Biso      1.000     O          -0.5097649999999999           
         O20       1.0000    0.41652   0.71169   0.61810   Biso      1.000     O          -0.49695900000000004          
         O21       1.0000    0.75163   0.69085   0.78926   Biso      1.000     O          -0.459924           
         O22       1.0000    0.82474   0.83876   0.84373   Biso      1.000     O          -0.377864           
         O23       1.0000    0.58283   0.15173   0.54266   Biso      1.000     O          -0.5331199999999999           
         O24       1.0000    0.58348   0.78831   0.11810   Biso      1.000     O          -0.49695600000000006          
         Zn1       1.0000    0.42889   0.39163   0.92116   Biso      1.000     Zn          0.80376   
         Zn2       1.0000    0.57111   0.10837   0.42116   Biso      1.000     Zn          0.80376   
         Zn3       1.0000    0.57111   0.60837   0.07884   Biso      1.000     Zn          0.803762  
         Zn4       1.0000    0.42889   0.89163   0.57884   Biso      1.000     Zn          0.803761 