
##########################################################################
#               Crystallographic Information Format file
#               Produced by PyCifRW module
#
#  This is a CIF file.  CIF has been adopted by the International
#  Union of Crystallography as the standard for data archiving and
#  transmission.
#
#  For information on this file format, follow the CIF links at
#  http://www.iucr.org
##########################################################################

data_image0

_cell_length_a                          16.9751
_cell_length_b                          10.9659
_cell_length_c                          22.442
_cell_angle_alpha                       90
_cell_angle_beta                        109.714
_cell_angle_gamma                       90
_symmetry_space_group_name_H-M          'P 1'
_symmetry_int_tables_number             1
loop_
  _symmetry_equiv_pos_as_xyz
         'x, y, z' 
loop_
  _atom_site_label
  _atom_site_occupancy
  _atom_site_fract_x
  _atom_site_fract_y
  _atom_site_fract_z
  _atom_site_thermal_displace_type
  _atom_site_B_iso_or_equiv
  _atom_site_type_symbol
  _atom_site_charge
         C1        1.0000    0.23440   0.77950   0.23898   Biso      1.000     C          0.174189  
         C2        1.0000    0.72370   0.08600   0.09290   Biso      1.000     C          0.559454  
         C3        1.0000    0.64670   0.16390   0.98380   Biso      1.000     C          -0.107127           
         C4        1.0000    0.63660   0.17670   0.91987   Biso      1.000     C          -0.027332           
         C5        1.0000    0.82100   0.67510   0.82810   Biso      1.000     C          0.162612  
         C6        1.0000    0.69480   0.12420   0.89728   Biso      1.000     C          -0.110922           
         C7        1.0000    0.76240   0.05900   0.93733   Biso      1.000     C          -0.014061           
         C8        1.0000    0.77280   0.04810   0.00101   Biso      1.000     C          -0.105554           
         C9        1.0000    0.71350   0.09930   0.02444   Biso      1.000     C          -0.019546           
         C10       1.0000    0.93300   0.24660   0.12332   Biso      1.000     C          0.623454  
         C11       1.0000    0.82580   0.00670   0.91160   Biso      1.000     C          0.566504  
         C12       1.0000    0.67420   0.49330   0.08840   Biso      1.000     C          0.566505  
         C13       1.0000    0.27280   0.45190   0.50101   Biso      1.000     C          -0.105555           
         C14       1.0000    0.26240   0.44100   0.43733   Biso      1.000     C          -0.014061           
         C15       1.0000    0.19480   0.37580   0.39728   Biso      1.000     C          -0.110925           
         C16       1.0000    0.13660   0.32330   0.41987   Biso      1.000     C          -0.02733  
         C17       1.0000    0.14670   0.33610   0.48380   Biso      1.000     C          -0.107127           
         C18       1.0000    0.80520   0.37580   0.10272   Biso      1.000     C          -0.110925           
         C19       1.0000    0.32580   0.49330   0.41160   Biso      1.000     C          0.566505  
         C20       1.0000    0.67900   0.82490   0.17190   Biso      1.000     C          0.162613  
         C21       1.0000    0.06700   0.24660   0.37668   Biso      1.000     C          0.623454  
         C22       1.0000    0.21350   0.40070   0.52444   Biso      1.000     C          -0.019546           
         C23       1.0000    0.56700   0.25340   0.87668   Biso      1.000     C          0.623454  
         C24       1.0000    0.73440   0.27950   0.23898   Biso      1.000     C          0.174188  
         C25       1.0000    0.73440   0.72050   0.73898   Biso      1.000     C          0.174189  
         C26       1.0000    0.06700   0.75340   0.87668   Biso      1.000     C          0.623454  
         C27       1.0000    0.32580   0.50670   0.91160   Biso      1.000     C          0.566506  
         C28       1.0000    0.22370   0.58600   0.09290   Biso      1.000     C          0.559453  
         C29       1.0000    0.14670   0.66390   0.98380   Biso      1.000     C          -0.107127           
         C30       1.0000    0.13660   0.67670   0.91987   Biso      1.000     C          -0.027332           
         C31       1.0000    0.19480   0.62420   0.89728   Biso      1.000     C          -0.110922           
         C32       1.0000    0.26240   0.55900   0.93733   Biso      1.000     C          -0.014061           
         C33       1.0000    0.76560   0.22050   0.76102   Biso      1.000     C          0.174189  
         C34       1.0000    0.27280   0.54810   0.00101   Biso      1.000     C          -0.105554           
         C35       1.0000    0.21350   0.59930   0.02444   Biso      1.000     C          -0.019546           
         C36       1.0000    0.71350   0.90070   0.52444   Biso      1.000     C          -0.019547           
         C37       1.0000    0.77280   0.95190   0.50101   Biso      1.000     C          -0.105554           
         C38       1.0000    0.76240   0.94100   0.43733   Biso      1.000     C          -0.01406  
         C39       1.0000    0.69480   0.87580   0.39728   Biso      1.000     C          -0.110925           
         C40       1.0000    0.63660   0.82330   0.41987   Biso      1.000     C          -0.027329           
         C41       1.0000    0.67900   0.17510   0.67190   Biso      1.000     C          0.162612  
         C42       1.0000    0.64670   0.83610   0.48380   Biso      1.000     C          -0.107126           
         C43       1.0000    0.72370   0.91400   0.59290   Biso      1.000     C          0.559452  
         C44       1.0000    0.82580   0.99330   0.41160   Biso      1.000     C          0.566505  
         C45       1.0000    0.56700   0.74660   0.37668   Biso      1.000     C          0.623454  
         C46       1.0000    0.82100   0.32490   0.32810   Biso      1.000     C          0.162613  
         C47       1.0000    0.76560   0.77950   0.26102   Biso      1.000     C          0.174188  
         C48       1.0000    0.93300   0.75340   0.62332   Biso      1.000     C          0.623454  
         C49       1.0000    0.22370   0.41400   0.59290   Biso      1.000     C          0.559451  
         C50       1.0000    0.77630   0.58600   0.40710   Biso      1.000     C          0.559459  
         C51       1.0000    0.67420   0.50670   0.58840   Biso      1.000     C          0.566505  
         C52       1.0000    0.17420   0.99330   0.08840   Biso      1.000     C          0.566505  
         C53       1.0000    0.26560   0.27950   0.26102   Biso      1.000     C          0.174188  
         C54       1.0000    0.43300   0.25340   0.62332   Biso      1.000     C          0.623454  
         C55       1.0000    0.17420   0.00670   0.58840   Biso      1.000     C          0.566505  
         C56       1.0000    0.27630   0.08600   0.40710   Biso      1.000     C          0.55945   
         C57       1.0000    0.43300   0.74660   0.12332   Biso      1.000     C          0.623454  
         C58       1.0000    0.35330   0.16390   0.51620   Biso      1.000     C          -0.107127           
         C59       1.0000    0.36340   0.17670   0.58013   Biso      1.000     C          -0.027333           
         C60       1.0000    0.27630   0.91400   0.90710   Biso      1.000     C          0.559448  
         C61       1.0000    0.26560   0.72050   0.76102   Biso      1.000     C          0.174188  
         C62       1.0000    0.23760   0.05900   0.56267   Biso      1.000     C          -0.014061           
         C63       1.0000    0.22720   0.04810   0.49899   Biso      1.000     C          -0.105555           
         C64       1.0000    0.28650   0.09930   0.47556   Biso      1.000     C          -0.019545           
         C65       1.0000    0.17900   0.67510   0.67190   Biso      1.000     C          0.162612  
         C66       1.0000    0.85330   0.33610   0.01620   Biso      1.000     C          -0.107127           
         C67       1.0000    0.86340   0.32330   0.08013   Biso      1.000     C          -0.027329           
         C68       1.0000    0.78650   0.40070   0.97556   Biso      1.000     C          -0.019546           
         C69       1.0000    0.72720   0.45190   0.99899   Biso      1.000     C          -0.105554           
         C70       1.0000    0.73760   0.44100   0.06267   Biso      1.000     C          -0.014061           
         C71       1.0000    0.30520   0.12420   0.60272   Biso      1.000     C          -0.110922           
         C72       1.0000    0.35330   0.83610   0.01620   Biso      1.000     C          -0.107127           
         C73       1.0000    0.17900   0.32490   0.17190   Biso      1.000     C          0.162613  
         C74       1.0000    0.72720   0.54810   0.49899   Biso      1.000     C          -0.105554           
         C75       1.0000    0.23440   0.22050   0.73898   Biso      1.000     C          0.174187  
         C76       1.0000    0.85330   0.66390   0.51620   Biso      1.000     C          -0.107127           
         C77       1.0000    0.86340   0.67670   0.58013   Biso      1.000     C          -0.027332           
         C78       1.0000    0.80520   0.62420   0.60272   Biso      1.000     C          -0.110922           
         C79       1.0000    0.73760   0.55900   0.56267   Biso      1.000     C          -0.014061           
         C80       1.0000    0.32100   0.17510   0.82810   Biso      1.000     C          0.162613  
         C81       1.0000    0.36340   0.82330   0.08013   Biso      1.000     C          -0.027333           
         C82       1.0000    0.78650   0.59930   0.47556   Biso      1.000     C          -0.019547           
         C83       1.0000    0.77630   0.41400   0.90710   Biso      1.000     C          0.559451  
         C84       1.0000    0.32100   0.82490   0.32810   Biso      1.000     C          0.162611  
         C85       1.0000    0.23760   0.94100   0.06267   Biso      1.000     C          -0.014061           
         C86       1.0000    0.28650   0.90070   0.97556   Biso      1.000     C          -0.019545           
         C87       1.0000    0.22720   0.95190   0.99899   Biso      1.000     C          -0.105554           
         C88       1.0000    0.30520   0.87580   0.10272   Biso      1.000     C          -0.110922           
         H1        1.0000    0.31110   0.86750   0.14530   Biso      1.000     H          0.123875  
         H2        1.0000    0.68110   0.49310   0.97190   Biso      1.000     H          0.130182  
         H3        1.0000    0.39210   0.80070   0.00050   Biso      1.000     H          0.129948  
         H4        1.0000    0.34980   0.86730   0.36500   Biso      1.000     H          0.112753  
         H5        1.0000    0.19080   0.21700   0.70040   Biso      1.000     H          0.11323   
         H6        1.0000    0.80920   0.21700   0.79960   Biso      1.000     H          0.11323   
         H7        1.0000    0.10790   0.30070   0.49950   Biso      1.000     H          0.129948  
         H8        1.0000    0.15020   0.63270   0.63500   Biso      1.000     H          0.112753  
         H9        1.0000    0.89210   0.30070   0.00050   Biso      1.000     H          0.129948  
         H10       1.0000    0.18110   0.99310   0.97190   Biso      1.000     H          0.130182  
         H11       1.0000    0.18890   0.36750   0.35470   Biso      1.000     H          0.123875  
         H12       1.0000    0.30920   0.71700   0.79960   Biso      1.000     H          0.11323   
         H13       1.0000    0.84980   0.63270   0.86500   Biso      1.000     H          0.112753  
         H14       1.0000    0.81890   0.99310   0.52810   Biso      1.000     H          0.130182  
         H15       1.0000    0.31890   0.49310   0.52810   Biso      1.000     H          0.130182  
         H16       1.0000    0.68890   0.86750   0.35470   Biso      1.000     H          0.123875  
         H17       1.0000    0.34980   0.13270   0.86500   Biso      1.000     H          0.112753  
         H18       1.0000    0.60790   0.80070   0.49950   Biso      1.000     H          0.129948  
         H19       1.0000    0.69080   0.71700   0.70040   Biso      1.000     H          0.11323   
         H20       1.0000    0.81110   0.36750   0.14530   Biso      1.000     H          0.123875  
         H21       1.0000    0.10790   0.69930   0.99950   Biso      1.000     H          0.129948  
         H22       1.0000    0.69080   0.28300   0.20040   Biso      1.000     H          0.11323   
         H23       1.0000    0.60790   0.19930   0.99950   Biso      1.000     H          0.129947  
         H24       1.0000    0.68890   0.13250   0.85470   Biso      1.000     H          0.123875  
         H25       1.0000    0.81890   0.00690   0.02810   Biso      1.000     H          0.130182  
         H26       1.0000    0.19080   0.78300   0.20040   Biso      1.000     H          0.11323   
         H27       1.0000    0.80920   0.78300   0.29960   Biso      1.000     H          0.11323   
         H28       1.0000    0.84980   0.36730   0.36500   Biso      1.000     H          0.112753  
         H29       1.0000    0.89210   0.69930   0.50050   Biso      1.000     H          0.129947  
         H30       1.0000    0.68110   0.50690   0.47190   Biso      1.000     H          0.130182  
         H31       1.0000    0.15020   0.36730   0.13500   Biso      1.000     H          0.112753  
         H32       1.0000    0.30920   0.28300   0.29960   Biso      1.000     H          0.11323   
         H33       1.0000    0.39210   0.19930   0.50050   Biso      1.000     H          0.129948  
         H34       1.0000    0.31110   0.13250   0.64530   Biso      1.000     H          0.123875  
         H35       1.0000    0.18110   0.00690   0.47190   Biso      1.000     H          0.130181  
         H36       1.0000    0.81110   0.63250   0.64530   Biso      1.000     H          0.123875  
         H37       1.0000    0.65020   0.13270   0.63500   Biso      1.000     H          0.112753  
         H38       1.0000    0.65020   0.86730   0.13500   Biso      1.000     H          0.112753  
         H39       1.0000    0.18890   0.63250   0.85470   Biso      1.000     H          0.123875  
         H40       1.0000    0.31890   0.50690   0.02810   Biso      1.000     H          0.130182  
         N1        1.0000    0.74570   0.12930   0.71846   Biso      1.000     N          -0.301862           
         N2        1.0000    0.71610   0.31520   0.74158   Biso      1.000     N          -0.195538           
         N3        1.0000    0.65910   0.28490   0.68397   Biso      1.000     N          -0.208478           
         N4        1.0000    0.25430   0.87070   0.28154   Biso      1.000     N          -0.301861           
         N5        1.0000    0.28390   0.68480   0.25842   Biso      1.000     N          -0.195538           
         N6        1.0000    0.34090   0.71510   0.31603   Biso      1.000     N          -0.208477           
         N7        1.0000    0.65910   0.71510   0.18397   Biso      1.000     N          -0.208489           
         N8        1.0000    0.15910   0.78490   0.68397   Biso      1.000     N          -0.208489           
         N9        1.0000    0.21610   0.81520   0.74158   Biso      1.000     N          -0.195527           
         N10       1.0000    0.24570   0.62930   0.71846   Biso      1.000     N          -0.301862           
         N11       1.0000    0.15910   0.21510   0.18397   Biso      1.000     N          -0.208489           
         N12       1.0000    0.21610   0.18480   0.24158   Biso      1.000     N          -0.195527           
         N13       1.0000    0.24570   0.37070   0.21846   Biso      1.000     N          -0.301862           
         N14       1.0000    0.71610   0.68480   0.24158   Biso      1.000     N          -0.195528           
         N15       1.0000    0.75430   0.62930   0.78154   Biso      1.000     N          -0.301862           
         N16       1.0000    0.78390   0.81520   0.75842   Biso      1.000     N          -0.195538           
         N17       1.0000    0.84090   0.78490   0.81603   Biso      1.000     N          -0.208478           
         N18       1.0000    0.34090   0.28490   0.81603   Biso      1.000     N          -0.208488           
         N19       1.0000    0.28390   0.31520   0.75842   Biso      1.000     N          -0.195527           
         N20       1.0000    0.25430   0.12930   0.78154   Biso      1.000     N          -0.301862           
         N21       1.0000    0.84090   0.21510   0.31603   Biso      1.000     N          -0.208488           
         N22       1.0000    0.78390   0.18480   0.25842   Biso      1.000     N          -0.195527           
         N23       1.0000    0.75430   0.37070   0.28154   Biso      1.000     N          -0.301861           
         N24       1.0000    0.74570   0.87070   0.21846   Biso      1.000     N          -0.301861           
         O1        1.0000    0.70610   0.54690   0.37157   Biso      1.000     O          -0.522651           
         O2        1.0000    0.83560   0.60990   0.38801   Biso      1.000     O          -0.48899  
         O3        1.0000    0.61820   0.43740   0.55530   Biso      1.000     O          -0.495792           
         O4        1.0000    0.67830   0.53600   0.64348   Biso      1.000     O          -0.513738           
         O5        1.0000    0.07781   0.97440   0.72959   Biso      1.000     O          -0.666509           
         O6        1.0000    0.16440   0.60990   0.11199   Biso      1.000     O          -0.488982           
         O7        1.0000    0.07781   0.02560   0.22959   Biso      1.000     O          -0.666509           
         O8        1.0000    0.47907   0.30560   0.59860   Biso      1.000     O          -0.511916           
         O9        1.0000    0.44023   0.25600   0.68064   Biso      1.000     O          -0.543396           
         O10       1.0000    0.17830   0.03600   0.64348   Biso      1.000     O          -0.513737           
         O11       1.0000    0.70610   0.45310   0.87157   Biso      1.000     O          -0.522651           
         O12       1.0000    0.83560   0.39010   0.88801   Biso      1.000     O          -0.488979           
         O13       1.0000    0.61820   0.56260   0.05530   Biso      1.000     O          -0.495791           
         O14       1.0000    0.67830   0.46400   0.14348   Biso      1.000     O          -0.513736           
         O15       1.0000    0.94023   0.24400   0.18064   Biso      1.000     O          -0.543395           
         O16       1.0000    0.97907   0.19440   0.09860   Biso      1.000     O          -0.511916           
         O17       1.0000    0.57781   0.47440   0.72959   Biso      1.000     O          -0.666506           
         O18       1.0000    0.11820   0.93740   0.55530   Biso      1.000     O          -0.495792           
         O19       1.0000    0.33560   0.10990   0.38801   Biso      1.000     O          -0.488977           
         O20       1.0000    0.20610   0.04690   0.37157   Biso      1.000     O          -0.522651           
         O21       1.0000    0.47907   0.69440   0.09860   Biso      1.000     O          -0.511916           
         O22       1.0000    0.44023   0.74400   0.18064   Biso      1.000     O          -0.543395           
         O23       1.0000    0.97907   0.80560   0.59860   Biso      1.000     O          -0.511915           
         O24       1.0000    0.11820   0.06260   0.05530   Biso      1.000     O          -0.495792           
         O25       1.0000    0.05977   0.24400   0.31936   Biso      1.000     O          -0.543395           
         O26       1.0000    0.32170   0.46400   0.35652   Biso      1.000     O          -0.513737           
         O27       1.0000    0.38180   0.56260   0.44470   Biso      1.000     O          -0.495792           
         O28       1.0000    0.16440   0.39010   0.61199   Biso      1.000     O          -0.488978           
         O29       1.0000    0.29390   0.45310   0.62843   Biso      1.000     O          -0.522651           
         O30       1.0000    0.52093   0.30560   0.90140   Biso      1.000     O          -0.511916           
         O31       1.0000    0.02093   0.19440   0.40140   Biso      1.000     O          -0.511916           
         O32       1.0000    0.92219   0.02560   0.27041   Biso      1.000     O          -0.666507           
         O33       1.0000    0.92219   0.97440   0.77041   Biso      1.000     O          -0.666507           
         O34       1.0000    0.42219   0.52560   0.27041   Biso      1.000     O          -0.666502           
         O35       1.0000    0.02093   0.80560   0.90140   Biso      1.000     O          -0.511916           
         O36       1.0000    0.05977   0.75600   0.81936   Biso      1.000     O          -0.543395           
         O37       1.0000    0.32170   0.53600   0.85652   Biso      1.000     O          -0.513738           
         O38       1.0000    0.29390   0.54690   0.12843   Biso      1.000     O          -0.522651           
         O39       1.0000    0.52093   0.69440   0.40140   Biso      1.000     O          -0.511916           
         O40       1.0000    0.17830   0.96400   0.14348   Biso      1.000     O          -0.513737           
         O41       1.0000    0.42219   0.47440   0.77041   Biso      1.000     O          -0.666502           
         O42       1.0000    0.82170   0.03600   0.85652   Biso      1.000     O          -0.513736           
         O43       1.0000    0.88180   0.93740   0.94470   Biso      1.000     O          -0.495791           
         O44       1.0000    0.66440   0.10990   0.11199   Biso      1.000     O          -0.488983           
         O45       1.0000    0.79390   0.04690   0.12843   Biso      1.000     O          -0.52265  
         O46       1.0000    0.55977   0.74400   0.31936   Biso      1.000     O          -0.543396           
         O47       1.0000    0.82170   0.96400   0.35652   Biso      1.000     O          -0.513737           
         O48       1.0000    0.88180   0.06260   0.44470   Biso      1.000     O          -0.495792           
         O49       1.0000    0.66440   0.89010   0.61199   Biso      1.000     O          -0.48898  
         O50       1.0000    0.55977   0.25600   0.81936   Biso      1.000     O          -0.543396           
         O51       1.0000    0.79390   0.95310   0.62843   Biso      1.000     O          -0.52265  
         O52       1.0000    0.57781   0.52560   0.22959   Biso      1.000     O          -0.666506           
         O53       1.0000    0.38180   0.43740   0.94470   Biso      1.000     O          -0.495792           
         O54       1.0000    0.94023   0.75600   0.68064   Biso      1.000     O          -0.543396           
         O55       1.0000    0.20610   0.95310   0.87157   Biso      1.000     O          -0.522651           
         O56       1.0000    0.33560   0.89010   0.88801   Biso      1.000     O          -0.488975           
         Zn1       1.0000    0.00000   0.13695   0.25000   Biso      1.000     Zn          0.94006   
         Zn2       1.0000    0.50000   0.63695   0.25000   Biso      1.000     Zn          0.940059  
         Zn3       1.0000    0.19942   0.03070   0.28337   Biso      1.000     Zn          0.796353  
         Zn4       1.0000    0.92800   0.92459   0.86446   Biso      1.000     Zn          0.870815  
         Zn5       1.0000    0.69942   0.46930   0.78337   Biso      1.000     Zn          0.796354  
         Zn6       1.0000    0.07200   0.92459   0.63554   Biso      1.000     Zn          0.870815  
         Zn7       1.0000    0.19942   0.96930   0.78337   Biso      1.000     Zn          0.796353  
         Zn8       1.0000    0.42800   0.42459   0.86446   Biso      1.000     Zn          0.870817  
         Zn9       1.0000    0.30058   0.46930   0.71663   Biso      1.000     Zn          0.796352  
         Zn10      1.0000    0.00000   0.86305   0.75000   Biso      1.000     Zn          0.940061  
         Zn11      1.0000    0.80058   0.96930   0.71663   Biso      1.000     Zn          0.796354  
         Zn12      1.0000    0.42800   0.57541   0.36446   Biso      1.000     Zn          0.870814  
         Zn13      1.0000    0.30058   0.53070   0.21663   Biso      1.000     Zn          0.796352  
         Zn14      1.0000    0.92800   0.07541   0.36446   Biso      1.000     Zn          0.870816  
         Zn15      1.0000    0.80058   0.03070   0.21663   Biso      1.000     Zn          0.796351  
         Zn16      1.0000    0.57200   0.57541   0.13554   Biso      1.000     Zn          0.870817  
         Zn17      1.0000    0.69942   0.53070   0.28337   Biso      1.000     Zn          0.796352  
         Zn18      1.0000    0.07200   0.07541   0.13554   Biso      1.000     Zn          0.870816  
         Zn19      1.0000    0.57200   0.42459   0.63554   Biso      1.000     Zn          0.870816  
         Zn20      1.0000    0.50000   0.36305   0.75000   Biso      1.000     Zn          0.940059 