
##########################################################################
#               Crystallographic Information Format file
#               Produced by PyCifRW module
#
#  This is a CIF file.  CIF has been adopted by the International
#  Union of Crystallography as the standard for data archiving and
#  transmission.
#
#  For information on this file format, follow the CIF links at
#  http://www.iucr.org
##########################################################################

data_image0

_cell_length_a                          8.6742
_cell_length_b                          9.9686
_cell_length_c                          11.756
_cell_angle_alpha                       74.81
_cell_angle_beta                        69.699
_cell_angle_gamma                       85.93
_symmetry_space_group_name_H-M          'P 1'
_symmetry_int_tables_number             1
loop_
  _symmetry_equiv_pos_as_xyz
         'x, y, z' 
loop_
  _atom_site_label
  _atom_site_occupancy
  _atom_site_fract_x
  _atom_site_fract_y
  _atom_site_fract_z
  _atom_site_thermal_displace_type
  _atom_site_B_iso_or_equiv
  _atom_site_type_symbol
  _atom_site_charge
         C1        1.0000    0.71750   0.61140   0.14860   Biso      1.000     C          -0.346194           
         C2        1.0000    0.18970   0.39670   0.19670   Biso      1.000     C          -0.349637           
         C3        1.0000    0.15420   0.38490   0.08300   Biso      1.000     C          -0.148527           
         C4        1.0000    0.31200   0.38900   0.97160   Biso      1.000     C          -0.149887           
         C5        1.0000    0.28250   0.38860   0.85140   Biso      1.000     C          -0.346194           
         C6        1.0000    0.43510   0.41260   0.73680   Biso      1.000     C          0.709693  
         C7        1.0000    0.03300   0.02210   0.42810   Biso      1.000     C          -0.15561  
         C8        1.0000    0.21020   0.98310   0.37270   Biso      1.000     C          -0.332975           
         C9        1.0000    0.23870   0.82920   0.40710   Biso      1.000     C          0.678632  
         C10       1.0000    0.95570   0.58430   0.69250   Biso      1.000     C          0.693852  
         C11       1.0000    0.81030   0.60330   0.80330   Biso      1.000     C          -0.349637           
         C12       1.0000    0.84580   0.61510   0.91700   Biso      1.000     C          -0.148527           
         C13       1.0000    0.68800   0.61100   0.02840   Biso      1.000     C          -0.149886           
         C14       1.0000    0.78980   0.01690   0.62730   Biso      1.000     C          -0.332975           
         C15       1.0000    0.56490   0.58740   0.26320   Biso      1.000     C          0.709693  
         C16       1.0000    0.04430   0.41570   0.30750   Biso      1.000     C          0.693852  
         C17       1.0000    0.76130   0.17080   0.59290   Biso      1.000     C          0.678632  
         C18       1.0000    0.96700   0.97790   0.57190   Biso      1.000     C          -0.155611           
         H1        1.0000    0.37690   0.30920   0.99250   Biso      1.000     H          0.099563  
         H2        1.0000    0.76730   0.70020   0.13750   Biso      1.000     H          0.146999  
         H3        1.0000    0.79540   0.53970   0.16270   Biso      1.000     H          0.142648  
         H4        1.0000    0.62450   0.52800   0.04310   Biso      1.000     H          0.09940700000000001           
         H5        1.0000    0.62310   0.69080   0.00750   Biso      1.000     H          0.099563  
         H6        1.0000    0.91490   0.53920   0.93930   Biso      1.000     H          0.095135  
         H7        1.0000    0.90540   0.70160   0.89720   Biso      1.000     H          0.10102799999999999           
         H8        1.0000    0.73450   0.52530   0.82870   Biso      1.000     H          0.145293  
         H9        1.0000    0.75440   0.68650   0.77560   Biso      1.000     H          0.140848  
         H10       1.0000    0.27840   0.03040   0.40090   Biso      1.000     H          0.128236  
         H11       1.0000    0.37550   0.47200   0.95690   Biso      1.000     H          0.09940700000000001           
         H12       1.0000    0.24480   0.01580   0.28210   Biso      1.000     H          0.13688   
         H13       1.0000    0.96520   0.97880   0.39660   Biso      1.000     H          0.09818400000000001           
         H14       1.0000    0.23270   0.29980   0.86250   Biso      1.000     H          0.146999  
         H15       1.0000    0.03480   0.02120   0.60340   Biso      1.000     H          0.09818400000000001           
         H16       1.0000    0.97600   0.87800   0.59950   Biso      1.000     H          0.097436  
         H17       1.0000    0.75520   0.98420   0.71790   Biso      1.000     H          0.13688   
         H18       1.0000    0.72160   0.96960   0.59910   Biso      1.000     H          0.128236  
         H19       1.0000    0.24560   0.31350   0.22440   Biso      1.000     H          0.140848  
         H20       1.0000    0.20460   0.46030   0.83730   Biso      1.000     H          0.142648  
         H21       1.0000    0.09460   0.29840   0.10280   Biso      1.000     H          0.10102799999999999           
         H22       1.0000    0.08510   0.46080   0.06070   Biso      1.000     H          0.095135  
         H23       1.0000    0.02400   0.12200   0.40050   Biso      1.000     H          0.09743500000000001           
         H24       1.0000    0.26550   0.47470   0.17130   Biso      1.000     H          0.145293  
         Nd1       1.0000    0.25445   0.52242   0.48809   Biso      1.000     Nd          2.070239  
         Nd2       1.0000    0.74555   0.47758   0.51191   Biso      1.000     Nd          2.070239  
         O1        1.0000    0.42460   0.60730   0.25360   Biso      1.000     O          -0.602781           
         O2        1.0000    0.57720   0.54430   0.37200   Biso      1.000     O          -0.795983           
         O3        1.0000    0.09900   0.61640   0.68120   Biso      1.000     O          -0.607244           
         O4        1.0000    0.93210   0.53520   0.61050   Biso      1.000     O          -0.765098           
         O5        1.0000    0.13730   0.74710   0.40160   Biso      1.000     O          -0.676705           
         O6        1.0000    0.35760   0.78160   0.44100   Biso      1.000     O          -0.653432           
         O7        1.0000    0.57540   0.39270   0.74640   Biso      1.000     O          -0.602781           
         O8        1.0000    0.42280   0.45570   0.62800   Biso      1.000     O          -0.795983           
         O9        1.0000    0.90100   0.38360   0.31880   Biso      1.000     O          -0.607244           
         O10       1.0000    0.06790   0.46480   0.38950   Biso      1.000     O          -0.765098           
         O11       1.0000    0.86270   0.25290   0.59840   Biso      1.000     O          -0.676705           
         O12       1.0000    0.64240   0.21840   0.55900   Biso      1.000     O          -0.653432 