
##########################################################################
#               Crystallographic Information Format file
#               Produced by PyCifRW module
#
#  This is a CIF file.  CIF has been adopted by the International
#  Union of Crystallography as the standard for data archiving and
#  transmission.
#
#  For information on this file format, follow the CIF links at
#  http://www.iucr.org
##########################################################################

data_image0

_cell_length_a                          14.8127
_cell_length_b                          14.8127
_cell_length_c                          15.613
_cell_angle_alpha                       90
_cell_angle_beta                        90
_cell_angle_gamma                       120
_symmetry_space_group_name_H-M          'P 1'
_symmetry_int_tables_number             1
loop_
  _symmetry_equiv_pos_as_xyz
         'x, y, z' 
loop_
  _atom_site_label
  _atom_site_occupancy
  _atom_site_fract_x
  _atom_site_fract_y
  _atom_site_fract_z
  _atom_site_thermal_displace_type
  _atom_site_B_iso_or_equiv
  _atom_site_type_symbol
  _atom_site_charge
         C1        1.0000    0.35160   0.48290   0.14030   Biso      1.000     C          0.6747890000000001  
         C2        1.0000    0.64840   0.13130   0.64030   Biso      1.000     C          0.67478   
         C3        1.0000    0.41320   0.26210   0.69620   Biso      1.000     C          -0.165166           
         C4        1.0000    0.48290   0.35160   0.64030   Biso      1.000     C          0.674793  
         C5        1.0000    0.84890   0.58680   0.69620   Biso      1.000     C          -0.165179           
         C6        1.0000    0.86870   0.51710   0.64030   Biso      1.000     C          0.6747890000000001  
         C7        1.0000    0.26210   0.84890   0.69620   Biso      1.000     C          -0.165161           
         C8        1.0000    0.35160   0.86870   0.64030   Biso      1.000     C          0.67478   
         C9        1.0000    0.58680   0.73790   0.69620   Biso      1.000     C          -0.165167           
         C10       1.0000    0.51710   0.64840   0.64030   Biso      1.000     C          0.674793  
         C11       1.0000    0.73790   0.15110   0.69620   Biso      1.000     C          -0.165161           
         C12       1.0000    0.15110   0.41320   0.69620   Biso      1.000     C          -0.165179           
         C13       1.0000    0.58680   0.84890   0.80380   Biso      1.000     C          -0.165161           
         C14       1.0000    0.51710   0.86870   0.85970   Biso      1.000     C          0.674779  
         C15       1.0000    0.15110   0.73790   0.80380   Biso      1.000     C          -0.165166           
         C16       1.0000    0.13130   0.64840   0.85970   Biso      1.000     C          0.674794  
         C17       1.0000    0.26210   0.41320   0.80380   Biso      1.000     C          -0.165178           
         C18       1.0000    0.41320   0.15110   0.80380   Biso      1.000     C          -0.165161           
         C19       1.0000    0.48290   0.13130   0.85970   Biso      1.000     C          0.674779  
         C20       1.0000    0.84890   0.26210   0.80380   Biso      1.000     C          -0.165166           
         C21       1.0000    0.86870   0.35160   0.85970   Biso      1.000     C          0.674794  
         C22       1.0000    0.13130   0.48290   0.64030   Biso      1.000     C          0.6747890000000001  
         C23       1.0000    0.73790   0.58680   0.80380   Biso      1.000     C          -0.165178           
         C24       1.0000    0.26210   0.41320   0.19620   Biso      1.000     C          -0.165179           
         C25       1.0000    0.15110   0.73790   0.19620   Biso      1.000     C          -0.165166           
         C26       1.0000    0.26210   0.84890   0.30380   Biso      1.000     C          -0.165161           
         C27       1.0000    0.35160   0.86870   0.35970   Biso      1.000     C          0.67478   
         C28       1.0000    0.58680   0.73790   0.30380   Biso      1.000     C          -0.165167           
         C29       1.0000    0.51710   0.64840   0.35970   Biso      1.000     C          0.674793  
         C30       1.0000    0.15110   0.41320   0.30380   Biso      1.000     C          -0.165179           
         C31       1.0000    0.13130   0.48290   0.35970   Biso      1.000     C          0.6747890000000001  
         C32       1.0000    0.73790   0.15110   0.30380   Biso      1.000     C          -0.165161           
         C33       1.0000    0.64840   0.13130   0.35970   Biso      1.000     C          0.67478   
         C34       1.0000    0.41320   0.26210   0.30380   Biso      1.000     C          -0.165167           
         C35       1.0000    0.13130   0.64840   0.14030   Biso      1.000     C          0.674794  
         C36       1.0000    0.48290   0.35160   0.35970   Biso      1.000     C          0.674793  
         C37       1.0000    0.86870   0.51710   0.35970   Biso      1.000     C          0.6747890000000001  
         C38       1.0000    0.41320   0.15110   0.19620   Biso      1.000     C          -0.165161           
         C39       1.0000    0.48290   0.13130   0.14030   Biso      1.000     C          0.674779  
         C40       1.0000    0.84890   0.26210   0.19620   Biso      1.000     C          -0.165166           
         C41       1.0000    0.86870   0.35160   0.14030   Biso      1.000     C          0.674794  
         C42       1.0000    0.73790   0.58680   0.19620   Biso      1.000     C          -0.165178           
         C43       1.0000    0.64840   0.51710   0.14030   Biso      1.000     C          0.6747890000000001  
         C44       1.0000    0.58680   0.84890   0.19620   Biso      1.000     C          -0.165161           
         C45       1.0000    0.51710   0.86870   0.14030   Biso      1.000     C          0.674779  
         C46       1.0000    0.84890   0.58680   0.30380   Biso      1.000     C          -0.165179           
         C47       1.0000    0.64840   0.51710   0.85970   Biso      1.000     C          0.6747890000000001  
         C48       1.0000    0.35160   0.48290   0.85970   Biso      1.000     C          0.6747890000000001  
         H1        1.0000    0.37000   0.28050   0.26970   Biso      1.000     H          0.10903399999999999           
         H2        1.0000    0.37000   0.28050   0.73030   Biso      1.000     H          0.10903399999999999           
         H3        1.0000    0.83510   0.63240   0.66090   Biso      1.000     H          0.120797  
         H4        1.0000    0.91050   0.63000   0.73030   Biso      1.000     H          0.10904000000000001           
         H5        1.0000    0.20270   0.83510   0.66090   Biso      1.000     H          0.12078900000000001           
         H6        1.0000    0.28050   0.91050   0.73030   Biso      1.000     H          0.10903499999999999           
         H7        1.0000    0.63240   0.79730   0.66090   Biso      1.000     H          0.120794  
         H8        1.0000    0.63000   0.71950   0.73030   Biso      1.000     H          0.10903399999999999           
         H9        1.0000    0.16490   0.36760   0.66090   Biso      1.000     H          0.120797  
         H10       1.0000    0.08950   0.37000   0.73030   Biso      1.000     H          0.10904000000000001           
         H11       1.0000    0.63240   0.83510   0.83910   Biso      1.000     H          0.12078900000000001           
         H12       1.0000    0.63000   0.91050   0.76970   Biso      1.000     H          0.10903499999999999           
         H13       1.0000    0.16490   0.79730   0.83910   Biso      1.000     H          0.120794  
         H14       1.0000    0.83510   0.63240   0.33910   Biso      1.000     H          0.120798  
         H15       1.0000    0.20270   0.36760   0.83910   Biso      1.000     H          0.120797  
         H16       1.0000    0.28050   0.37000   0.76970   Biso      1.000     H          0.10904000000000001           
         H17       1.0000    0.36760   0.16490   0.83910   Biso      1.000     H          0.12078900000000001           
         H18       1.0000    0.37000   0.08950   0.76970   Biso      1.000     H          0.10903399999999999           
         H19       1.0000    0.83510   0.20270   0.83910   Biso      1.000     H          0.120794  
         H20       1.0000    0.91050   0.28050   0.76970   Biso      1.000     H          0.10903299999999999           
         H21       1.0000    0.79730   0.63240   0.83910   Biso      1.000     H          0.120797  
         H22       1.0000    0.71950   0.63000   0.76970   Biso      1.000     H          0.10904000000000001           
         H23       1.0000    0.36760   0.20270   0.66090   Biso      1.000     H          0.12079300000000001           
         H24       1.0000    0.71950   0.08950   0.73030   Biso      1.000     H          0.10903399999999999           
         H25       1.0000    0.08950   0.71950   0.76970   Biso      1.000     H          0.10903299999999999           
         H26       1.0000    0.28050   0.37000   0.23030   Biso      1.000     H          0.10904000000000001           
         H27       1.0000    0.79730   0.16490   0.66090   Biso      1.000     H          0.120788  
         H28       1.0000    0.36760   0.20270   0.33910   Biso      1.000     H          0.120794  
         H29       1.0000    0.71950   0.08950   0.26970   Biso      1.000     H          0.10903499999999999           
         H30       1.0000    0.79730   0.16490   0.33910   Biso      1.000     H          0.12078900000000001           
         H31       1.0000    0.08950   0.37000   0.26970   Biso      1.000     H          0.10904000000000001           
         H32       1.0000    0.63000   0.71950   0.26970   Biso      1.000     H          0.10903399999999999           
         H33       1.0000    0.63240   0.79730   0.33910   Biso      1.000     H          0.120794  
         H34       1.0000    0.28050   0.91050   0.26970   Biso      1.000     H          0.10903499999999999           
         H35       1.0000    0.20270   0.83510   0.33910   Biso      1.000     H          0.12078900000000001           
         H36       1.0000    0.91050   0.63000   0.26970   Biso      1.000     H          0.10904000000000001           
         H37       1.0000    0.36760   0.16490   0.16090   Biso      1.000     H          0.12078900000000001           
         H38       1.0000    0.16490   0.36760   0.33910   Biso      1.000     H          0.120797  
         H39       1.0000    0.83510   0.20270   0.16090   Biso      1.000     H          0.120794  
         H40       1.0000    0.37000   0.08950   0.23030   Biso      1.000     H          0.10903399999999999           
         H41       1.0000    0.08950   0.71950   0.23030   Biso      1.000     H          0.10903299999999999           
         H42       1.0000    0.16490   0.79730   0.16090   Biso      1.000     H          0.120794  
         H43       1.0000    0.20270   0.36760   0.16090   Biso      1.000     H          0.120797  
         H44       1.0000    0.63240   0.83510   0.16090   Biso      1.000     H          0.12078900000000001           
         H45       1.0000    0.63000   0.91050   0.23030   Biso      1.000     H          0.10903399999999999           
         H46       1.0000    0.71950   0.63000   0.23030   Biso      1.000     H          0.10904000000000001           
         H47       1.0000    0.79730   0.63240   0.16090   Biso      1.000     H          0.120797  
         H48       1.0000    0.91050   0.28050   0.23030   Biso      1.000     H          0.10903299999999999           
         O1        1.0000    0.57980   0.38500   0.35540   Biso      1.000     O          -0.649351           
         O2        1.0000    0.43970   0.38530   0.40760   Biso      1.000     O          -0.578096           
         O3        1.0000    0.80520   0.42020   0.35540   Biso      1.000     O          -0.6493399999999999           
         O4        1.0000    0.43970   0.05440   0.09240   Biso      1.000     O          -0.578098           
         O5        1.0000    0.57980   0.19480   0.14460   Biso      1.000     O          -0.6493220000000001           
         O6        1.0000    0.94560   0.56030   0.40760   Biso      1.000     O          -0.578091           
         O7        1.0000    0.94560   0.38530   0.09240   Biso      1.000     O          -0.578096           
         O8        1.0000    0.56030   0.94560   0.09240   Biso      1.000     O          -0.578098           
         O9        1.0000    0.61470   0.56030   0.09240   Biso      1.000     O          -0.578091           
         O10       1.0000    0.61500   0.42020   0.14460   Biso      1.000     O          -0.649339           
         O11       1.0000    0.42020   0.80520   0.14460   Biso      1.000     O          -0.6493220000000001           
         O12       1.0000    0.61500   0.19480   0.35540   Biso      1.000     O          -0.649321           
         O13       1.0000    0.19480   0.61500   0.14460   Biso      1.000     O          -0.649351           
         O14       1.0000    0.05440   0.61470   0.09240   Biso      1.000     O          -0.578096           
         O15       1.0000    0.80520   0.38500   0.14460   Biso      1.000     O          -0.649351           
         O16       1.0000    0.61470   0.05440   0.40760   Biso      1.000     O          -0.578098           
         O17       1.0000    0.52920   0.76460   0.75000   Biso      1.000     O          -0.226534           
         O18       1.0000    0.05440   0.43970   0.40760   Biso      1.000     O          -0.578091           
         O19       1.0000    0.38530   0.43970   0.09240   Biso      1.000     O          -0.578091           
         O20       1.0000    0.76460   0.52920   0.75000   Biso      1.000     O          -0.2265   
         O21       1.0000    0.76460   0.23540   0.75000   Biso      1.000     O          -0.226534           
         O22       1.0000    0.47080   0.23540   0.75000   Biso      1.000     O          -0.226534           
         O23       1.0000    0.23540   0.47080   0.75000   Biso      1.000     O          -0.2265   
         O24       1.0000    0.23540   0.76460   0.75000   Biso      1.000     O          -0.226534           
         O25       1.0000    0.19480   0.57980   0.35540   Biso      1.000     O          -0.6493399999999999           
         O26       1.0000    0.23540   0.47080   0.25000   Biso      1.000     O          -0.2265   
         O27       1.0000    0.52920   0.76460   0.25000   Biso      1.000     O          -0.226534           
         O28       1.0000    0.76460   0.52920   0.25000   Biso      1.000     O          -0.2265   
         O29       1.0000    0.38530   0.94560   0.40760   Biso      1.000     O          -0.578098           
         O30       1.0000    0.38500   0.80520   0.35540   Biso      1.000     O          -0.649321           
         O31       1.0000    0.56030   0.61470   0.40760   Biso      1.000     O          -0.578096           
         O32       1.0000    0.42020   0.61500   0.35540   Biso      1.000     O          -0.649351           
         O33       1.0000    0.23540   0.76460   0.25000   Biso      1.000     O          -0.226534           
         O34       1.0000    0.38500   0.57980   0.14460   Biso      1.000     O          -0.649339           
         O35       1.0000    0.47080   0.23540   0.25000   Biso      1.000     O          -0.226534           
         O36       1.0000    0.61500   0.19480   0.64460   Biso      1.000     O          -0.649321           
         O37       1.0000    0.76460   0.23540   0.25000   Biso      1.000     O          -0.226534           
         O38       1.0000    0.61500   0.42020   0.85540   Biso      1.000     O          -0.649339           
         O39       1.0000    0.61470   0.56030   0.90760   Biso      1.000     O          -0.57809  
         O40       1.0000    0.80520   0.38500   0.85540   Biso      1.000     O          -0.649351           
         O41       1.0000    0.94560   0.38530   0.90760   Biso      1.000     O          -0.578096           
         O42       1.0000    0.57980   0.19480   0.85540   Biso      1.000     O          -0.6493220000000001           
         O43       1.0000    0.61470   0.05440   0.59240   Biso      1.000     O          -0.578098           
         O44       1.0000    0.38500   0.57980   0.85540   Biso      1.000     O          -0.649339           
         O45       1.0000    0.38530   0.43970   0.90760   Biso      1.000     O          -0.57809  
         O46       1.0000    0.19480   0.61500   0.85540   Biso      1.000     O          -0.649351           
         O47       1.0000    0.05440   0.61470   0.90760   Biso      1.000     O          -0.578096           
         O48       1.0000    0.43970   0.05440   0.90760   Biso      1.000     O          -0.578098           
         O49       1.0000    0.56030   0.94560   0.90760   Biso      1.000     O          -0.578098           
         O50       1.0000    0.42020   0.80520   0.85540   Biso      1.000     O          -0.6493220000000001           
         O51       1.0000    0.57980   0.38500   0.64460   Biso      1.000     O          -0.649351           
         O52       1.0000    0.94560   0.56030   0.59240   Biso      1.000     O          -0.578091           
         O53       1.0000    0.80520   0.42020   0.64460   Biso      1.000     O          -0.6493399999999999           
         O54       1.0000    0.38530   0.94560   0.59240   Biso      1.000     O          -0.578098           
         O55       1.0000    0.43970   0.38530   0.59240   Biso      1.000     O          -0.578096           
         O56       1.0000    0.56030   0.61470   0.59240   Biso      1.000     O          -0.578096           
         O57       1.0000    0.42020   0.61500   0.64460   Biso      1.000     O          -0.649351           
         O58       1.0000    0.05440   0.43970   0.59240   Biso      1.000     O          -0.578091           
         O59       1.0000    0.19480   0.57980   0.64460   Biso      1.000     O          -0.6493399999999999           
         O60       1.0000    0.38500   0.80520   0.64460   Biso      1.000     O          -0.649321           
         Sm1       1.0000    0.66667   0.33334   0.25000   Biso      1.000     Sm          1.988191  
         Sm2       1.0000    0.33333   0.66666   0.25000   Biso      1.000     Sm          1.988191  
         Sm3       1.0000    0.33333   0.66666   0.75000   Biso      1.000     Sm          1.988191  
         Sm4       1.0000    0.66667   0.33334   0.75000   Biso      1.000     Sm          1.988191  
         Zn1       1.0000    0.50000   0.00000   0.50000   Biso      1.000     Zn          1.079521  
         Zn2       1.0000    0.50000   0.50000   0.50000   Biso      1.000     Zn          1.079517  
         Zn3       1.0000    0.00000   0.50000   0.50000   Biso      1.000     Zn          1.079526  
         Zn4       1.0000    0.50000   0.00000   0.00000   Biso      1.000     Zn          1.079524  
         Zn5       1.0000    0.00000   0.50000   0.00000   Biso      1.000     Zn          1.0795190000000001  
         Zn6       1.0000    0.50000   0.50000   0.00000   Biso      1.000     Zn          1.0795219999999999 