
##########################################################################
#               Crystallographic Information Format file
#               Produced by PyCifRW module
#
#  This is a CIF file.  CIF has been adopted by the International
#  Union of Crystallography as the standard for data archiving and
#  transmission.
#
#  For information on this file format, follow the CIF links at
#  http://www.iucr.org
##########################################################################

data_image0

_cell_length_a                          12.706
_cell_length_b                          12.706
_cell_length_c                          23.817
_cell_angle_alpha                       90
_cell_angle_beta                        90
_cell_angle_gamma                       90
_symmetry_space_group_name_H-M          'P 1'
_symmetry_int_tables_number             1
loop_
  _symmetry_equiv_pos_as_xyz
         'x, y, z' 
loop_
  _atom_site_label
  _atom_site_occupancy
  _atom_site_fract_x
  _atom_site_fract_y
  _atom_site_fract_z
  _atom_site_thermal_displace_type
  _atom_site_B_iso_or_equiv
  _atom_site_type_symbol
  _atom_site_charge
         C1        1.0000    0.40631   0.34073   0.18193   Biso      1.000     C          -0.083379           
         C2        1.0000    0.73692   0.59277   0.35812   Biso      1.000     C          -0.097701           
         C3        1.0000    0.65927   0.59369   0.31807   Biso      1.000     C          -0.083377           
         C4        1.0000    0.26308   0.40723   0.35812   Biso      1.000     C          -0.097701           
         C5        1.0000    0.34073   0.40631   0.31807   Biso      1.000     C          -0.083377           
         C6        1.0000    0.40723   0.73692   0.85812   Biso      1.000     C          -0.097701           
         C7        1.0000    0.40631   0.65927   0.81807   Biso      1.000     C          -0.083377           
         C8        1.0000    0.59277   0.26308   0.85812   Biso      1.000     C          -0.097701           
         C9        1.0000    0.59369   0.34073   0.81807   Biso      1.000     C          -0.083377           
         C10       1.0000    0.26308   0.59277   0.64188   Biso      1.000     C          -0.097701           
         C11       1.0000    0.34073   0.59369   0.68193   Biso      1.000     C          -0.083377           
         C12       1.0000    0.73692   0.40723   0.64188   Biso      1.000     C          -0.097701           
         C13       1.0000    0.65927   0.40631   0.68193   Biso      1.000     C          -0.083377           
         C14       1.0000    0.59277   0.73692   0.14188   Biso      1.000     C          -0.097701           
         C15       1.0000    0.59369   0.65927   0.18193   Biso      1.000     C          -0.083377           
         C16       1.0000    0.40723   0.26308   0.14188   Biso      1.000     C          -0.097699           
         C17       1.0000    0.26308   0.40723   0.64188   Biso      1.000     C          -0.097701           
         C18       1.0000    0.34073   0.40631   0.68193   Biso      1.000     C          -0.083377           
         C19       1.0000    0.73692   0.59277   0.64188   Biso      1.000     C          -0.097701           
         C20       1.0000    0.65927   0.59369   0.68193   Biso      1.000     C          -0.083377           
         C21       1.0000    0.50000   0.61743   0.79711   Biso      1.000     C          -0.198754           
         C22       1.0000    0.50000   0.77550   0.87939   Biso      1.000     C          -0.021355           
         C23       1.0000    0.50000   0.85880   0.92364   Biso      1.000     C          0.623831  
         C24       1.0000    0.50000   0.38257   0.79711   Biso      1.000     C          -0.198754           
         C25       1.0000    0.14120   0.50000   0.57636   Biso      1.000     C          0.62383   
         C26       1.0000    0.22450   0.50000   0.62061   Biso      1.000     C          -0.02135  
         C27       1.0000    0.38257   0.50000   0.70289   Biso      1.000     C          -0.198754           
         C28       1.0000    0.85880   0.50000   0.57636   Biso      1.000     C          0.62383   
         C29       1.0000    0.77550   0.50000   0.62061   Biso      1.000     C          -0.021351           
         C30       1.0000    0.61743   0.50000   0.70289   Biso      1.000     C          -0.198754           
         C31       1.0000    0.50000   0.14120   0.07636   Biso      1.000     C          0.623831  
         C32       1.0000    0.50000   0.22450   0.12061   Biso      1.000     C          -0.021355           
         C33       1.0000    0.50000   0.38257   0.20289   Biso      1.000     C          -0.198754           
         C34       1.0000    0.59277   0.26308   0.14188   Biso      1.000     C          -0.097697           
         C35       1.0000    0.50000   0.85880   0.07636   Biso      1.000     C          0.623831  
         C36       1.0000    0.50000   0.61743   0.20289   Biso      1.000     C          -0.198754           
         C37       1.0000    0.85880   0.50000   0.42364   Biso      1.000     C          0.623831  
         C38       1.0000    0.77550   0.50000   0.37939   Biso      1.000     C          -0.021354           
         C39       1.0000    0.61743   0.50000   0.29711   Biso      1.000     C          -0.198754           
         C40       1.0000    0.14120   0.50000   0.42364   Biso      1.000     C          0.623831  
         C41       1.0000    0.22450   0.50000   0.37939   Biso      1.000     C          -0.021354           
         C42       1.0000    0.38257   0.50000   0.29711   Biso      1.000     C          -0.198754           
         C43       1.0000    0.50000   0.14120   0.92364   Biso      1.000     C          0.623831  
         C44       1.0000    0.50000   0.22450   0.87939   Biso      1.000     C          -0.021355           
         C45       1.0000    0.50000   0.77550   0.12061   Biso      1.000     C          -0.021354           
         C46       1.0000    0.40723   0.73692   0.14188   Biso      1.000     C          -0.097697           
         C47       1.0000    0.59369   0.34073   0.18193   Biso      1.000     C          -0.083378           
         C48       1.0000    0.73692   0.40723   0.35812   Biso      1.000     C          -0.097697           
         C49       1.0000    0.59369   0.65927   0.81807   Biso      1.000     C          -0.08338  
         C50       1.0000    0.59277   0.73692   0.85812   Biso      1.000     C          -0.097695           
         C51       1.0000    0.40631   0.34073   0.81807   Biso      1.000     C          -0.08338  
         C52       1.0000    0.40723   0.26308   0.85812   Biso      1.000     C          -0.097695           
         C53       1.0000    0.40631   0.65927   0.18193   Biso      1.000     C          -0.083378           
         C54       1.0000    0.26308   0.59277   0.35812   Biso      1.000     C          -0.097697           
         C55       1.0000    0.65927   0.40631   0.31807   Biso      1.000     C          -0.083378           
         C56       1.0000    0.34073   0.59369   0.31807   Biso      1.000     C          -0.083378           
         H1        1.0000    0.36640   0.34090   0.69560   Biso      1.000     H          0.101258  
         H2        1.0000    0.76450   0.65760   0.62860   Biso      1.000     H          0.114358  
         H3        1.0000    0.63360   0.65910   0.69560   Biso      1.000     H          0.101258  
         H4        1.0000    0.65760   0.23550   0.12860   Biso      1.000     H          0.114358  
         H5        1.0000    0.65910   0.36640   0.19560   Biso      1.000     H          0.101258  
         H6        1.0000    0.34240   0.76450   0.12860   Biso      1.000     H          0.114358  
         H7        1.0000    0.34090   0.63360   0.19560   Biso      1.000     H          0.101258  
         H8        1.0000    0.76450   0.34240   0.37140   Biso      1.000     H          0.114358  
         H9        1.0000    0.23550   0.65760   0.37140   Biso      1.000     H          0.114358  
         H10       1.0000    0.23550   0.34240   0.62860   Biso      1.000     H          0.114358  
         H11       1.0000    0.34240   0.23550   0.87140   Biso      1.000     H          0.114358  
         H12       1.0000    0.34090   0.36640   0.80440   Biso      1.000     H          0.101259  
         H13       1.0000    0.65910   0.63360   0.80440   Biso      1.000     H          0.101259  
         H14       1.0000    0.65760   0.76450   0.87140   Biso      1.000     H          0.114358  
         H15       1.0000    0.63360   0.34090   0.30440   Biso      1.000     H          0.101258  
         H16       1.0000    0.36640   0.65910   0.30440   Biso      1.000     H          0.101258  
         H17       1.0000    0.34090   0.36640   0.19560   Biso      1.000     H          0.101259  
         H18       1.0000    0.65910   0.63360   0.19560   Biso      1.000     H          0.101258  
         H19       1.0000    0.76450   0.65760   0.37140   Biso      1.000     H          0.114358  
         H20       1.0000    0.34240   0.23550   0.12860   Biso      1.000     H          0.114358  
         H21       1.0000    0.23550   0.34240   0.37140   Biso      1.000     H          0.114358  
         H22       1.0000    0.36640   0.34090   0.30440   Biso      1.000     H          0.101258  
         H23       1.0000    0.34240   0.76450   0.87140   Biso      1.000     H          0.114358  
         H24       1.0000    0.34090   0.63360   0.80440   Biso      1.000     H          0.101258  
         H25       1.0000    0.63360   0.65910   0.30440   Biso      1.000     H          0.101258  
         H26       1.0000    0.65910   0.36640   0.80440   Biso      1.000     H          0.101258  
         H27       1.0000    0.23550   0.65760   0.62860   Biso      1.000     H          0.114358  
         H28       1.0000    0.36640   0.65910   0.69560   Biso      1.000     H          0.101258  
         H29       1.0000    0.76450   0.34240   0.62860   Biso      1.000     H          0.114358  
         H30       1.0000    0.63360   0.34090   0.69560   Biso      1.000     H          0.101258  
         H31       1.0000    0.65760   0.76450   0.12860   Biso      1.000     H          0.114358  
         H32       1.0000    0.65760   0.23550   0.87140   Biso      1.000     H          0.114358  
         O1        1.0000    0.88956   0.58849   0.55860   Biso      1.000     O          -0.584034           
         O2        1.0000    0.11044   0.41151   0.55860   Biso      1.000     O          -0.584034           
         O3        1.0000    0.41151   0.88956   0.94140   Biso      1.000     O          -0.584034           
         O4        1.0000    0.58849   0.11044   0.94140   Biso      1.000     O          -0.584034           
         O5        1.0000    0.58849   0.88956   0.05860   Biso      1.000     O          -0.584034           
         O6        1.0000    0.88956   0.41151   0.55860   Biso      1.000     O          -0.584034           
         O7        1.0000    0.58849   0.11044   0.05860   Biso      1.000     O          -0.584034           
         O8        1.0000    0.41151   0.11044   0.05860   Biso      1.000     O          -0.584034           
         O9        1.0000    0.11044   0.58849   0.55860   Biso      1.000     O          -0.584034           
         O10       1.0000    0.41151   0.88956   0.05860   Biso      1.000     O          -0.584034           
         O11       1.0000    0.88956   0.58849   0.44140   Biso      1.000     O          -0.584034           
         O12       1.0000    0.11044   0.58849   0.44140   Biso      1.000     O          -0.584034           
         O13       1.0000    0.41151   0.11044   0.94140   Biso      1.000     O          -0.584034           
         O14       1.0000    0.58849   0.88956   0.94140   Biso      1.000     O          -0.584034           
         O15       1.0000    0.11044   0.41151   0.44140   Biso      1.000     O          -0.584034           
         O16       1.0000    0.88956   0.41151   0.44140   Biso      1.000     O          -0.584034           
         Si1       1.0000    0.50000   0.50000   0.25000   Biso      1.000     Si          0.656185  
         Si2       1.0000    0.50000   0.50000   0.75000   Biso      1.000     Si          0.656184  
         Zn1       1.0000    0.00000   0.38242   0.50000   Biso      1.000     Zn          1.062436  
         Zn2       1.0000    0.00000   0.61758   0.50000   Biso      1.000     Zn          1.062437  
         Zn3       1.0000    0.38242   0.00000   0.00000   Biso      1.000     Zn          1.062437  
         Zn4       1.0000    0.61758   0.00000   0.00000   Biso      1.000     Zn          1.062436 