
##########################################################################
#               Crystallographic Information Format file
#               Produced by PyCifRW module
#
#  This is a CIF file.  CIF has been adopted by the International
#  Union of Crystallography as the standard for data archiving and
#  transmission.
#
#  For information on this file format, follow the CIF links at
#  http://www.iucr.org
##########################################################################

data_image0

_cell_length_a                          13.8443
_cell_length_b                          14.5615
_cell_length_c                          23.9659
_cell_angle_alpha                       79.2299
_cell_angle_beta                        73.2119
_cell_angle_gamma                       61.6164
_symmetry_space_group_name_H-M          'P 1'
_symmetry_int_tables_number             1
loop_
  _symmetry_equiv_pos_as_xyz
         'x, y, z' 
loop_
  _atom_site_label
  _atom_site_occupancy
  _atom_site_fract_x
  _atom_site_fract_y
  _atom_site_fract_z
  _atom_site_thermal_displace_type
  _atom_site_B_iso_or_equiv
  _atom_site_type_symbol
  _atom_site_charge
         C1        1.0000    0.02819   0.91933   0.63609   Biso      1.000     C          -0.205013           
         C2        1.0000    0.77676   0.01101   0.75987   Biso      1.000     C          -0.08207  
         C3        1.0000    0.86908   0.03245   0.74519   Biso      1.000     C          -0.194898           
         C4        1.0000    0.00867   0.13147   0.65299   Biso      1.000     C          -0.174581           
         C5        1.0000    0.13842   0.24146   0.62950   Biso      1.000     C          -0.050322           
         C6        1.0000    0.20768   0.30017   0.61687   Biso      1.000     C          0.63564   
         C7        1.0000    0.98562   0.22246   0.61690   Biso      1.000     C          -0.064943           
         C8        1.0000    0.04710   0.27940   0.60400   Biso      1.000     C          -0.093271           
         C9        1.0000    0.16571   0.15082   0.66596   Biso      1.000     C          -0.111597           
         C10       1.0000    0.10099   0.09719   0.67723   Biso      1.000     C          -0.065752           
         C11       1.0000    0.72762   0.96543   0.92373   Biso      1.000     C          0.604591  
         C12       1.0000    0.73461   0.22370   0.63528   Biso      1.000     C          -0.083256           
         C13       1.0000    0.56262   0.11850   0.06566   Biso      1.000     C          0.621957  
         C14       1.0000    0.51071   0.22353   0.09045   Biso      1.000     C          -0.008505           
         C15       1.0000    0.50204   0.23117   0.14835   Biso      1.000     C          -0.109164           
         C16       1.0000    0.45347   0.32813   0.17073   Biso      1.000     C          -0.085512           
         C17       1.0000    0.41639   0.41933   0.13609   Biso      1.000     C          -0.204379           
         C18       1.0000    0.42970   0.40970   0.07750   Biso      1.000     C          -0.082619           
         C19       1.0000    0.47670   0.31150   0.05490   Biso      1.000     C          -0.101127           
         C20       1.0000    0.58317   0.71807   0.07879   Biso      1.000     C          -0.01131  
         C21       1.0000    0.73193   0.98788   0.81746   Biso      1.000     C          -0.099147           
         C22       1.0000    0.77925   0.98738   0.86172   Biso      1.000     C          -0.020612           
         C23       1.0000    0.86989   0.00931   0.84731   Biso      1.000     C          -0.104281           
         C24       1.0000    0.91470   0.03153   0.78967   Biso      1.000     C          -0.091245           
         C25       1.0000    0.79313   0.36853   0.84701   Biso      1.000     C          -0.174896           
         C26       1.0000    0.00938   0.25854   0.87050   Biso      1.000     C          -0.05096  
         C27       1.0000    0.82498   0.27754   0.88310   Biso      1.000     C          -0.065386           
         C28       1.0000    0.93050   0.22060   0.89600   Biso      1.000     C          -0.093439           
         C29       1.0000    0.98249   0.34918   0.83404   Biso      1.000     C          -0.10941  
         C30       1.0000    0.87541   0.40281   0.82277   Biso      1.000     C          -0.065937           
         C31       1.0000    0.61678   0.53457   0.57627   Biso      1.000     C          0.608304  
         C32       1.0000    0.59359   0.27630   0.86472   Biso      1.000     C          -0.083386           
         C33       1.0000    0.25322   0.61850   0.56566   Biso      1.000     C          0.620109  
         C34       1.0000    0.47539   0.77230   0.11112   Biso      1.000     C          -0.097913           
         C35       1.0000    0.17531   0.72353   0.59045   Biso      1.000     C          -0.00673  
         C36       1.0000    0.04767   0.82813   0.67073   Biso      1.000     C          -0.082502           
         C37       1.0000    0.08310   0.90970   0.57750   Biso      1.000     C          -0.081338           
         C38       1.0000    0.15690   0.81150   0.55490   Biso      1.000     C          -0.10297  
         C39       1.0000    0.61997   0.21807   0.57879   Biso      1.000     C          -0.011136           
         C40       1.0000    0.64119   0.27230   0.61112   Biso      1.000     C          -0.098016           
         C41       1.0000    0.80887   0.11838   0.62848   Biso      1.000     C          -0.205858           
         C42       1.0000    0.78385   0.06405   0.59585   Biso      1.000     C          -0.084556           
         C43       1.0000    0.68980   0.11337   0.57323   Biso      1.000     C          -0.101832           
         C44       1.0000    0.51814   0.27113   0.55299   Biso      1.000     C          0.569511  
         C45       1.0000    0.11844   0.73117   0.64835   Biso      1.000     C          -0.110072           
         C46       1.0000    0.44427   0.61838   0.12848   Biso      1.000     C          -0.206105           
         C47       1.0000    0.55625   0.56405   0.09585   Biso      1.000     C          -0.085105           
         C48       1.0000    0.62360   0.61337   0.07323   Biso      1.000     C          -0.100987           
         C49       1.0000    0.35881   0.72770   0.38888   Biso      1.000     C          -0.09802  
         C50       1.0000    0.19113   0.88162   0.37152   Biso      1.000     C          -0.205859           
         C51       1.0000    0.21615   0.93595   0.40415   Biso      1.000     C          -0.084555           
         C52       1.0000    0.31020   0.88663   0.42677   Biso      1.000     C          -0.101842           
         C53       1.0000    0.48186   0.72887   0.44701   Biso      1.000     C          0.56951   
         C54       1.0000    0.08530   0.96847   0.21033   Biso      1.000     C          -0.091246           
         C55       1.0000    0.13011   0.99069   0.15269   Biso      1.000     C          -0.104285           
         C56       1.0000    0.22075   0.01262   0.13828   Biso      1.000     C          -0.020607           
         C57       1.0000    0.26807   0.01212   0.18254   Biso      1.000     C          -0.099149           
         C58       1.0000    0.38003   0.78193   0.42121   Biso      1.000     C          -0.011125           
         C59       1.0000    0.22324   0.98899   0.24013   Biso      1.000     C          -0.082069           
         C60       1.0000    0.99133   0.86853   0.34701   Biso      1.000     C          -0.174581           
         C61       1.0000    0.86158   0.75854   0.37050   Biso      1.000     C          -0.050322           
         C62       1.0000    0.79232   0.69983   0.38313   Biso      1.000     C          0.635641  
         C63       1.0000    0.01438   0.77754   0.38310   Biso      1.000     C          -0.064943           
         C64       1.0000    0.95290   0.72060   0.39600   Biso      1.000     C          -0.093271           
         C65       1.0000    0.83429   0.84918   0.33404   Biso      1.000     C          -0.111597           
         C66       1.0000    0.89901   0.90281   0.32277   Biso      1.000     C          -0.065752           
         C67       1.0000    0.27238   0.03457   0.07627   Biso      1.000     C          0.604589  
         C68       1.0000    0.26539   0.77630   0.36472   Biso      1.000     C          -0.083254           
         C69       1.0000    0.13092   0.96755   0.25481   Biso      1.000     C          -0.194897           
         C70       1.0000    0.64672   0.46755   0.75481   Biso      1.000     C          -0.193634           
         C71       1.0000    0.84310   0.18850   0.44510   Biso      1.000     C          -0.102985           
         C72       1.0000    0.97181   0.08067   0.36391   Biso      1.000     C          -0.205013           
         C73       1.0000    0.65774   0.77113   0.05299   Biso      1.000     C          0.568409  
         C74       1.0000    0.26410   0.53153   0.28967   Biso      1.000     C          -0.092144           
         C75       1.0000    0.27349   0.50931   0.34731   Biso      1.000     C          -0.104135           
         C76       1.0000    0.37165   0.48738   0.36172   Biso      1.000     C          -0.019771           
         C77       1.0000    0.46273   0.48788   0.31746   Biso      1.000     C          -0.098427           
         C78       1.0000    0.45236   0.51101   0.25987   Biso      1.000     C          -0.084589           
         C79       1.0000    0.35328   0.53245   0.24519   Biso      1.000     C          -0.193632           
         C80       1.0000    0.20687   0.63147   0.15299   Biso      1.000     C          -0.174896           
         C81       1.0000    0.99062   0.74146   0.12950   Biso      1.000     C          -0.05096  
         C82       1.0000    0.91690   0.09030   0.42250   Biso      1.000     C          -0.081336           
         C83       1.0000    0.87528   0.80017   0.11687   Biso      1.000     C          0.635801  
         C84       1.0000    0.06950   0.77940   0.10400   Biso      1.000     C          -0.093439           
         C85       1.0000    0.01751   0.65082   0.16596   Biso      1.000     C          -0.10941  
         C86       1.0000    0.12459   0.59719   0.17723   Biso      1.000     C          -0.065937           
         C87       1.0000    0.38322   0.46543   0.42373   Biso      1.000     C          0.608303  
         C88       1.0000    0.40641   0.72370   0.13528   Biso      1.000     C          -0.083382           
         C89       1.0000    0.74678   0.38150   0.43434   Biso      1.000     C          0.620108  
         C90       1.0000    0.82469   0.27647   0.40955   Biso      1.000     C          -0.006716           
         C91       1.0000    0.88156   0.26883   0.35165   Biso      1.000     C          -0.110076           
         C92       1.0000    0.95233   0.17187   0.32927   Biso      1.000     C          -0.082499           
         C93       1.0000    0.17502   0.72246   0.11690   Biso      1.000     C          -0.065385           
         C94       1.0000    0.54764   0.48899   0.74013   Biso      1.000     C          -0.084588           
         C95       1.0000    0.12472   0.19983   0.88313   Biso      1.000     C          0.635801  
         C96       1.0000    0.62835   0.51262   0.63828   Biso      1.000     C          -0.019775           
         C97       1.0000    0.53727   0.51212   0.68254   Biso      1.000     C          -0.098428           
         C98       1.0000    0.43738   0.88150   0.93434   Biso      1.000     C          0.621956  
         C99       1.0000    0.49796   0.76883   0.85165   Biso      1.000     C          -0.109169           
         C100      1.0000    0.54653   0.67187   0.82927   Biso      1.000     C          -0.085511           
         C101      1.0000    0.58361   0.58067   0.86391   Biso      1.000     C          -0.20438  
         C102      1.0000    0.57030   0.59030   0.92250   Biso      1.000     C          -0.082617           
         C103      1.0000    0.52330   0.68850   0.94510   Biso      1.000     C          -0.101143           
         C104      1.0000    0.41683   0.28193   0.92121   Biso      1.000     C          -0.011311           
         C105      1.0000    0.48929   0.77647   0.90955   Biso      1.000     C          -0.008488           
         C106      1.0000    0.55573   0.38162   0.87152   Biso      1.000     C          -0.206103           
         C107      1.0000    0.44375   0.43595   0.90415   Biso      1.000     C          -0.085105           
         C108      1.0000    0.37640   0.38663   0.92677   Biso      1.000     C          -0.100987           
         C109      1.0000    0.34226   0.22887   0.94701   Biso      1.000     C          0.568409  
         C110      1.0000    0.73590   0.46847   0.71033   Biso      1.000     C          -0.092143           
         C111      1.0000    0.72651   0.49069   0.65269   Biso      1.000     C          -0.104132           
         C112      1.0000    0.52461   0.22770   0.88888   Biso      1.000     C          -0.097912           
         H1        1.0000    0.01130   0.83210   0.71110   Biso      1.000     H          0.100582  
         H2        1.0000    0.07030   0.97100   0.55220   Biso      1.000     H          0.099059  
         H3        1.0000    0.19400   0.80670   0.51470   Biso      1.000     H          0.108382  
         H4        1.0000    0.59110   0.34400   0.61700   Biso      1.000     H          0.108568  
         H5        1.0000    0.83310   0.99230   0.58950   Biso      1.000     H          0.102437  
         H6        1.0000    0.67260   0.07420   0.55340   Biso      1.000     H          0.120912  
         H7        1.0000    0.66950   0.97260   0.82660   Biso      1.000     H          0.122016  
         H8        1.0000    0.90240   0.00940   0.87720   Biso      1.000     H          0.113745  
         H9        1.0000    0.74350   0.01220   0.73000   Biso      1.000     H          0.102781  
         H10       1.0000    0.92290   0.24760   0.59980   Biso      1.000     H          0.099424  
         H11       1.0000    0.02770   0.34120   0.57900   Biso      1.000     H          0.1321    
         H12       1.0000    0.12810   0.66950   0.67290   Biso      1.000     H          0.111705  
         H13       1.0000    0.22830   0.12570   0.68310   Biso      1.000     H          0.121489  
         H14       1.0000    0.12030   0.03540   0.70220   Biso      1.000     H          0.105595  
         H15       1.0000    0.97760   0.04630   0.78070   Biso      1.000     H          0.094765  
         H16       1.0000    0.29700   0.32980   0.63580   Biso      1.000     H          0.42066   
         H17       1.0000    0.78900   0.49060   0.62280   Biso      1.000     H          0.113268  
         H18       1.0000    0.85790   0.46460   0.79780   Biso      1.000     H          0.105528  
         H19       1.0000    0.26260   0.17020   0.86420   Biso      1.000     H          0.421095  
         H20       1.0000    0.47050   0.83050   0.82710   Biso      1.000     H          0.111772  
         H21       1.0000    0.55450   0.66790   0.78890   Biso      1.000     H          0.101598  
         H22       1.0000    0.59350   0.52900   0.94780   Biso      1.000     H          0.099436  
         H23       1.0000    0.51540   0.69330   0.98530   Biso      1.000     H          0.108539  
         H24       1.0000    0.55210   0.15600   0.88300   Biso      1.000     H          0.108893  
         H25       1.0000    0.66820   0.23690   0.84310   Biso      1.000     H          0.098525  
         H26       1.0000    0.41490   0.50770   0.91050   Biso      1.000     H          0.102773  
         H27       1.0000    0.80460   0.45370   0.71930   Biso      1.000     H          0.095216  
         H28       1.0000    0.46870   0.52740   0.67340   Biso      1.000     H          0.121635  
         H29       1.0000    0.48570   0.48780   0.77000   Biso      1.000     H          0.103767  
         H30       1.0000    0.77030   0.25240   0.90020   Biso      1.000     H          0.100338  
         H31       1.0000    0.94790   0.15880   0.92100   Biso      1.000     H          0.132499  
         H32       1.0000    0.03710   0.37430   0.81690   Biso      1.000     H          0.120011  
         H33       1.0000    0.30020   0.42580   0.94660   Biso      1.000     H          0.120288  
         H34       1.0000    0.73740   0.82980   0.13580   Biso      1.000     H          0.421095  
         H35       1.0000    0.74820   0.26310   0.65690   Biso      1.000     H          0.098242  
         H36       1.0000    0.44550   0.33210   0.21110   Biso      1.000     H          0.101598  
         H37       1.0000    0.25180   0.73690   0.34310   Biso      1.000     H          0.098242  
         H38       1.0000    0.87970   0.96460   0.29780   Biso      1.000     H          0.105595  
         H39       1.0000    0.77170   0.87430   0.31690   Biso      1.000     H          0.121489  
         H40       1.0000    0.97230   0.65880   0.42100   Biso      1.000     H          0.1321    
         H41       1.0000    0.07710   0.75240   0.40020   Biso      1.000     H          0.099424  
         H42       1.0000    0.52950   0.16950   0.17290   Biso      1.000     H          0.111772  
         H43       1.0000    0.33050   0.02740   0.17340   Biso      1.000     H          0.122016  
         H44       1.0000    0.09760   0.99060   0.12280   Biso      1.000     H          0.113746  
         H45       1.0000    0.02240   0.95370   0.21930   Biso      1.000     H          0.094765  
         H46       1.0000    0.32740   0.92580   0.44660   Biso      1.000     H          0.120913  
         H47       1.0000    0.16690   0.00770   0.41050   Biso      1.000     H          0.102437  
         H48       1.0000    0.40890   0.65600   0.38300   Biso      1.000     H          0.108569  
         H49       1.0000    0.80600   0.19330   0.48530   Biso      1.000     H          0.108383  
         H50       1.0000    0.92970   0.02900   0.44780   Biso      1.000     H          0.099059  
         H51       1.0000    0.98870   0.16790   0.28890   Biso      1.000     H          0.100582  
         H52       1.0000    0.25650   0.98780   0.27000   Biso      1.000     H          0.10278   
         H53       1.0000    0.70300   0.67020   0.36420   Biso      1.000     H          0.42066   
         H54       1.0000    0.87190   0.33050   0.32710   Biso      1.000     H          0.111705  
         H55       1.0000    0.40650   0.47100   0.05220   Biso      1.000     H          0.099436  
         H56       1.0000    0.48460   0.30670   0.01470   Biso      1.000     H          0.108538  
         H57       1.0000    0.58510   0.49230   0.08950   Biso      1.000     H          0.102773  
         H58       1.0000    0.69980   0.57420   0.05340   Biso      1.000     H          0.120288  
         H59       1.0000    0.19540   0.54630   0.28070   Biso      1.000     H          0.095216  
         H60       1.0000    0.21100   0.50940   0.37720   Biso      1.000     H          0.113268  
         H61       1.0000    0.44790   0.84400   0.11700   Biso      1.000     H          0.108893  
         H62       1.0000    0.51430   0.51220   0.23000   Biso      1.000     H          0.103767  
         H63       1.0000    0.22970   0.74760   0.09980   Biso      1.000     H          0.100338  
         H64       1.0000    0.05210   0.84120   0.07900   Biso      1.000     H          0.132499  
         H65       1.0000    0.96290   0.62570   0.18310   Biso      1.000     H          0.120011  
         H66       1.0000    0.14210   0.53540   0.20220   Biso      1.000     H          0.105528  
         H67       1.0000    0.33180   0.76310   0.15690   Biso      1.000     H          0.098525  
         H68       1.0000    0.53130   0.47260   0.32660   Biso      1.000     H          0.121635  
         O1        1.0000    0.46891   0.46344   0.43278   Biso      1.000     O          -0.563738           
         O2        1.0000    0.48993   0.22210   0.53004   Biso      1.000     O          -0.525968           
         O3        1.0000    0.46005   0.37224   0.55768   Biso      1.000     O          -0.622727           
         O4        1.0000    0.21350   0.34655   0.56765   Biso      1.000     O          -0.480486           
         O5        1.0000    0.26390   0.29197   0.64923   Biso      1.000     O          -0.437284           
         O6        1.0000    0.64143   0.04525   0.08699   Biso      1.000     O          -0.581398           
         O7        1.0000    0.52672   0.11184   0.02512   Biso      1.000     O          -0.555123           
         O8        1.0000    0.30583   0.45140   0.46194   Biso      1.000     O          -0.545579           
         O9        1.0000    0.53995   0.62776   0.44232   Biso      1.000     O          -0.622727           
         O10       1.0000    0.61003   0.87224   0.05768   Biso      1.000     O          -0.621978           
         O11       1.0000    0.36513   0.03656   0.06722   Biso      1.000     O          -0.562125           
         O12       1.0000    0.21917   0.04860   0.03806   Biso      1.000     O          -0.543788           
         O13       1.0000    0.66368   0.38816   0.47488   Biso      1.000     O          -0.554201           
         O14       1.0000    0.77367   0.45475   0.41301   Biso      1.000     O          -0.580733           
         O15       1.0000    0.79490   0.79197   0.14923   Biso      1.000     O          -0.438665           
         O16       1.0000    0.87230   0.84655   0.06765   Biso      1.000     O          -0.480208           
         O17       1.0000    0.63487   0.96344   0.93278   Biso      1.000     O          -0.562125           
         O18       1.0000    0.75793   0.72210   0.03004   Biso      1.000     O          -0.525719           
         O19       1.0000    0.51007   0.77790   0.46996   Biso      1.000     O          -0.525968           
         O20       1.0000    0.78083   0.95140   0.96194   Biso      1.000     O          -0.543788           
         O21       1.0000    0.73610   0.70803   0.35077   Biso      1.000     O          -0.437284           
         O22       1.0000    0.22633   0.54525   0.58699   Biso      1.000     O          -0.580733           
         O23       1.0000    0.20510   0.20803   0.85077   Biso      1.000     O          -0.438665           
         O24       1.0000    0.12770   0.15345   0.93235   Biso      1.000     O          -0.480208           
         O25       1.0000    0.38997   0.12776   0.94232   Biso      1.000     O          -0.621978           
         O26       1.0000    0.24207   0.27790   0.96996   Biso      1.000     O          -0.525719           
         O27       1.0000    0.53109   0.53656   0.56722   Biso      1.000     O          -0.563738           
         O28       1.0000    0.69417   0.54860   0.53806   Biso      1.000     O          -0.545579           
         O29       1.0000    0.47328   0.88816   0.97488   Biso      1.000     O          -0.555122           
         O30       1.0000    0.35857   0.95475   0.91301   Biso      1.000     O          -0.581398           
         O31       1.0000    0.78650   0.65345   0.43235   Biso      1.000     O          -0.480486           
         O32       1.0000    0.33632   0.61184   0.52512   Biso      1.000     O          -0.554201           
         Si1       1.0000    0.64702   0.44778   0.83480   Biso      1.000     Si          0.649437  
         Si2       1.0000    0.07040   0.94778   0.33480   Biso      1.000     Si          0.649303  
         Si3       1.0000    0.35298   0.55222   0.16520   Biso      1.000     Si          0.649437  
         Si4       1.0000    0.92960   0.05222   0.66520   Biso      1.000     Si          0.649303  
         Zn1       1.0000    0.50000   0.50000   0.50000   Biso      1.000     Zn          1.036548  
         Zn2       1.0000    0.50000   0.00000   0.00000   Biso      1.000     Zn          1.03697   
         Zn3       1.0000    0.69032   0.58502   0.45488   Biso      1.000     Zn          0.873197  
         Zn4       1.0000    0.73022   0.91498   0.04512   Biso      1.000     Zn          0.873892  
         Zn5       1.0000    0.30968   0.41498   0.54512   Biso      1.000     Zn          0.873197  
         Zn6       1.0000    0.26978   0.08502   0.95488   Biso      1.000     Zn          0.873892 