
##########################################################################
#               Crystallographic Information Format file
#               Produced by PyCifRW module
#
#  This is a CIF file.  CIF has been adopted by the International
#  Union of Crystallography as the standard for data archiving and
#  transmission.
#
#  For information on this file format, follow the CIF links at
#  http://www.iucr.org
##########################################################################

data_image0

_cell_length_a                          13.935
_cell_length_b                          14.196
_cell_length_c                          14.6708
_cell_angle_alpha                       107.988
_cell_angle_beta                        113.735
_cell_angle_gamma                       100.298
_symmetry_space_group_name_H-M          'P 1'
_symmetry_int_tables_number             1
loop_
  _symmetry_equiv_pos_as_xyz
         'x, y, z' 
loop_
  _atom_site_label
  _atom_site_occupancy
  _atom_site_fract_x
  _atom_site_fract_y
  _atom_site_fract_z
  _atom_site_thermal_displace_type
  _atom_site_B_iso_or_equiv
  _atom_site_type_symbol
  _atom_site_charge
         C1        1.0000    0.59430   0.30670   0.94770   Biso      1.000     C          -0.093913           
         C2        1.0000    0.91680   0.25050   0.61580   Biso      1.000     C          -0.101239           
         C3        1.0000    0.84600   0.22420   0.65720   Biso      1.000     C          -0.024447           
         C4        1.0000    0.72250   0.18430   0.58720   Biso      1.000     C          0.6153350000000001  
         C5        1.0000    0.66950   0.82760   0.31470   Biso      1.000     C          -0.08672300000000001          
         C6        1.0000    0.71010   0.78650   0.24650   Biso      1.000     C          -0.079742           
         C7        1.0000    0.70050   0.67930   0.20910   Biso      1.000     C          -0.199309           
         C8        1.0000    0.64880   0.61680   0.24500   Biso      1.000     C          -0.090132           
         C9        1.0000    0.60660   0.65860   0.31400   Biso      1.000     C          -0.105447           
         C10       1.0000    0.61720   0.76500   0.34900   Biso      1.000     C          -0.029363999999999998         
         C11       1.0000    0.03250   0.29020   0.68300   Biso      1.000     C          -0.077553           
         C12       1.0000    0.57070   0.81200   0.42120   Biso      1.000     C          0.608615  
         C13       1.0000    0.80910   0.44960   0.04460   Biso      1.000     C          -0.08204  
         C14       1.0000    0.72750   0.48830   0.05450   Biso      1.000     C          -0.198517           
         C15       1.0000    0.61910   0.41500   0.00530   Biso      1.000     C          -0.087961           
         C16       1.0000    0.67650   0.27050   0.93440   Biso      1.000     C          -0.017345           
         C17       1.0000    0.64820   0.15760   0.86470   Biso      1.000     C          0.590249  
         C18       1.0000    0.74100   0.82580   0.95310   Biso      1.000     C          -0.09564299999999999          
         C19       1.0000    0.77280   0.78770   0.03250   Biso      1.000     C          -0.083092           
         C20       1.0000    0.71790   0.68500   0.01070   Biso      1.000     C          -0.189039           
         C21       1.0000    0.62690   0.62180   0.90500   Biso      1.000     C          -0.077088           
         C22       1.0000    0.78370   0.34210   0.98460   Biso      1.000     C          -0.102654           
         C23       1.0000    0.08060   0.30360   0.79120   Biso      1.000     C          -0.199954           
         C24       1.0000    0.00880   0.27960   0.83370   Biso      1.000     C          -0.083178           
         C25       1.0000    0.89490   0.23820   0.76680   Biso      1.000     C          -0.127555           
         C26       1.0000    0.33050   0.17240   0.68530   Biso      1.000     C          -0.08672300000000001          
         C27       1.0000    0.28990   0.21350   0.75350   Biso      1.000     C          -0.079742           
         C28       1.0000    0.29950   0.32070   0.79090   Biso      1.000     C          -0.19930799999999999          
         C29       1.0000    0.35120   0.38320   0.75500   Biso      1.000     C          -0.090132           
         C30       1.0000    0.39340   0.34140   0.68600   Biso      1.000     C          -0.105446           
         C31       1.0000    0.38280   0.23500   0.65100   Biso      1.000     C          -0.029363999999999998         
         C32       1.0000    0.42930   0.18800   0.57880   Biso      1.000     C          0.608615  
         C33       1.0000    0.21630   0.65790   0.01540   Biso      1.000     C          -0.102655           
         C34       1.0000    0.19090   0.55040   0.95540   Biso      1.000     C          -0.082039           
         C35       1.0000    0.27250   0.51170   0.94550   Biso      1.000     C          -0.198517           
         C36       1.0000    0.38090   0.58500   0.99470   Biso      1.000     C          -0.087961           
         C37       1.0000    0.40570   0.69330   0.05230   Biso      1.000     C          -0.093913           
         C38       1.0000    0.32350   0.72950   0.06560   Biso      1.000     C          -0.017344           
         C39       1.0000    0.35180   0.84240   0.13530   Biso      1.000     C          0.590249  
         C40       1.0000    0.25900   0.17420   0.04690   Biso      1.000     C          -0.09564299999999999          
         C41       1.0000    0.22720   0.21230   0.96750   Biso      1.000     C          -0.083092           
         C42       1.0000    0.28210   0.31500   0.98930   Biso      1.000     C          -0.189039           
         C43       1.0000    0.37310   0.37820   0.09500   Biso      1.000     C          -0.077088           
         C44       1.0000    0.40950   0.34020   0.17430   Biso      1.000     C          -0.103549           
         C45       1.0000    0.35110   0.23700   0.14970   Biso      1.000     C          -0.032152           
         C46       1.0000    0.38390   0.19380   0.23550   Biso      1.000     C          0.635055  
         C47       1.0000    0.64890   0.76300   0.85030   Biso      1.000     C          -0.032152999999999994         
         C48       1.0000    0.61610   0.80620   0.76450   Biso      1.000     C          0.635055  
         C49       1.0000    0.59050   0.65980   0.82570   Biso      1.000     C          -0.103549           
         C50       1.0000    0.99120   0.72040   0.16630   Biso      1.000     C          -0.083177           
         C51       1.0000    0.91940   0.69640   0.20880   Biso      1.000     C          -0.199957           
         C52       1.0000    0.96750   0.70980   0.31700   Biso      1.000     C          -0.077549           
         C53       1.0000    0.08320   0.74950   0.38420   Biso      1.000     C          -0.101239           
         C54       1.0000    0.15400   0.77580   0.34280   Biso      1.000     C          -0.024447           
         C55       1.0000    0.27750   0.81570   0.41280   Biso      1.000     C          0.6153350000000001  
         C56       1.0000    0.10510   0.76180   0.23320   Biso      1.000     C          -0.127555           
         H1        1.0000    0.67740   0.90020   0.33880   Biso      1.000     H          0.12206099999999999           
         H2        1.0000    0.74540   0.83110   0.22390   Biso      1.000     H          0.10263900000000001           
         H3        1.0000    0.64210   0.54450   0.22210   Biso      1.000     H          0.101227  
         H4        1.0000    0.57090   0.61470   0.33690   Biso      1.000     H          0.11768499999999998           
         H5        1.0000    0.84090   0.31780   0.97810   Biso      1.000     H          0.117875  
         H6        1.0000    0.88360   0.49700   0.07930   Biso      1.000     H          0.101074  
         H7        1.0000    0.56170   0.43930   0.01120   Biso      1.000     H          0.09370099999999999           
         H8        1.0000    0.58910   0.55070   0.88730   Biso      1.000     H          0.096777  
         H9        1.0000    0.78220   0.89520   0.96900   Biso      1.000     H          0.119709  
         H10       1.0000    0.83380   0.83280   0.10380   Biso      1.000     H          0.09906000000000001           
         H11       1.0000    0.52670   0.61640   0.75570   Biso      1.000     H          0.12128399999999999           
         H12       1.0000    0.15170   0.78140   0.20460   Biso      1.000     H          0.105058  
         H13       1.0000    0.96020   0.70770   0.09110   Biso      1.000     H          0.10730799999999999           
         H14       1.0000    0.92080   0.69150   0.34600   Biso      1.000     H          0.10874500000000001           
         H15       1.0000    0.11430   0.75880   0.45850   Biso      1.000     H          0.120601  
         H16       1.0000    0.52150   0.25810   0.91780   Biso      1.000     H          0.115923  
         H17       1.0000    0.88570   0.24120   0.54150   Biso      1.000     H          0.120601  
         H18       1.0000    0.51900   0.98700   0.68300   Biso      1.000     H          0.395898  
         H19       1.0000    0.03980   0.29230   0.90890   Biso      1.000     H          0.10730799999999999           
         H20       1.0000    0.48100   0.01300   0.31700   Biso      1.000     H          0.395898  
         H21       1.0000    0.07920   0.30850   0.65400   Biso      1.000     H          0.10874500000000001           
         H22       1.0000    0.25460   0.16890   0.77610   Biso      1.000     H          0.10263900000000001           
         H23       1.0000    0.35790   0.45550   0.77790   Biso      1.000     H          0.101227  
         H24       1.0000    0.42910   0.38530   0.66310   Biso      1.000     H          0.11768499999999998           
         H25       1.0000    0.15910   0.68220   0.02190   Biso      1.000     H          0.117875  
         H26       1.0000    0.11640   0.50300   0.92070   Biso      1.000     H          0.101074  
         H27       1.0000    0.32260   0.09980   0.66120   Biso      1.000     H          0.12206099999999999           
         H28       1.0000    0.47850   0.74190   0.08220   Biso      1.000     H          0.115923  
         H29       1.0000    0.21780   0.10480   0.03100   Biso      1.000     H          0.119709  
         H30       1.0000    0.16620   0.16720   0.89620   Biso      1.000     H          0.09906000000000001           
         H31       1.0000    0.41090   0.44930   0.11270   Biso      1.000     H          0.096777  
         H32       1.0000    0.47330   0.38360   0.24430   Biso      1.000     H          0.12128399999999999           
         H33       1.0000    0.84830   0.21860   0.79540   Biso      1.000     H          0.105058  
         H34       1.0000    0.43830   0.56070   0.98880   Biso      1.000     H          0.09370099999999999           
         O1        1.0000    0.57300   0.90490   0.43740   Biso      1.000     O          -0.565013           
         O2        1.0000    0.53580   0.95510   0.62560   Biso      1.000     O          -0.8896870000000001           
         O3        1.0000    0.46510   0.24340   0.53950   Biso      1.000     O          -0.5720350000000001           
         O4        1.0000    0.44770   0.90720   0.17780   Biso      1.000     O          -0.531328           
         O5        1.0000    0.66380   0.12270   0.60500   Biso      1.000     O          -0.580136           
         O6        1.0000    0.47510   0.24430   0.32110   Biso      1.000     O          -0.530086           
         O7        1.0000    0.31230   0.11050   0.21390   Biso      1.000     O          -0.600159           
         O8        1.0000    0.53490   0.75660   0.46050   Biso      1.000     O          -0.5720350000000001           
         O9        1.0000    0.68570   0.21950   0.51340   Biso      1.000     O          -0.556422           
         O10       1.0000    0.27040   0.86420   0.14880   Biso      1.000     O          -0.599532           
         O11       1.0000    0.55230   0.09280   0.82220   Biso      1.000     O          -0.531328           
         O12       1.0000    0.46420   0.04490   0.37440   Biso      1.000     O          -0.8896870000000001           
         O13       1.0000    0.52490   0.75570   0.67890   Biso      1.000     O          -0.530085           
         O14       1.0000    0.68770   0.88950   0.78610   Biso      1.000     O          -0.600159           
         O15       1.0000    0.33620   0.87730   0.39500   Biso      1.000     O          -0.580136           
         O16       1.0000    0.31430   0.78050   0.48660   Biso      1.000     O          -0.556422           
         O17       1.0000    0.42700   0.09510   0.56260   Biso      1.000     O          -0.565013           
         O18       1.0000    0.72960   0.13580   0.85120   Biso      1.000     O          -0.599532           
         Si1       1.0000    0.23617   0.36569   0.88000   Biso      1.000     Si          0.647882  
         Si2       1.0000    0.76383   0.63431   0.12000   Biso      1.000     Si          0.647882  
         Zn1       1.0000    0.50000   0.00000   0.50000   Biso      1.000     Zn          1.053852  
         Zn2       1.0000    0.30330   0.99584   0.26420   Biso      1.000     Zn          1.042936  
         Zn3       1.0000    0.52875   0.20329   0.44345   Biso      1.000     Zn          0.97841   
         Zn4       1.0000    0.69670   0.00416   0.73580   Biso      1.000     Zn          1.042936  
         Zn5       1.0000    0.47125   0.79671   0.55655   Biso      1.000     Zn          0.97841 