
##########################################################################
#               Crystallographic Information Format file
#               Produced by PyCifRW module
#
#  This is a CIF file.  CIF has been adopted by the International
#  Union of Crystallography as the standard for data archiving and
#  transmission.
#
#  For information on this file format, follow the CIF links at
#  http://www.iucr.org
##########################################################################

data_image0

_cell_length_a                          7.9316
_cell_length_b                          15.7547
_cell_length_c                          15.7547
_cell_angle_alpha                       120
_cell_angle_beta                        90
_cell_angle_gamma                       90
_symmetry_space_group_name_H-M          'P 1'
_symmetry_int_tables_number             1
loop_
  _symmetry_equiv_pos_as_xyz
         'x, y, z' 
loop_
  _atom_site_label
  _atom_site_occupancy
  _atom_site_fract_x
  _atom_site_fract_y
  _atom_site_fract_z
  _atom_site_thermal_displace_type
  _atom_site_B_iso_or_equiv
  _atom_site_type_symbol
  _atom_site_charge
         C1        1.0000    0.10080   0.07890   0.52570   Biso      1.000     C          0.540317  
         C2        1.0000    0.60080   0.55320   0.47430   Biso      1.000     C          0.540329  
         C3        1.0000    0.72780   0.71880   0.57480   Biso      1.000     C          -0.112738           
         C4        1.0000    0.81860   0.78850   0.65620   Biso      1.000     C          -0.003139           
         C5        1.0000    0.86070   0.76790   0.72830   Biso      1.000     C          -0.09914400000000001          
         C6        1.0000    0.81380   0.04320   0.32010   Biso      1.000     C          -0.016283000000000002         
         C7        1.0000    0.72550   0.02900   0.38920   Biso      1.000     C          -0.103877           
         C8        1.0000    0.68460   0.93650   0.37090   Biso      1.000     C          -0.004908           
         C9        1.0000    0.86220   0.14210   0.33850   Biso      1.000     C          0.537844  
         C10       1.0000    0.87250   0.78130   0.11790   Biso      1.000     C          0.594216  
         C11       1.0000    0.60080   0.92110   0.44680   Biso      1.000     C          0.540309  
         C12       1.0000    0.72780   0.85600   0.28120   Biso      1.000     C          -0.11273699999999999          
         C13       1.0000    0.81860   0.86770   0.21150   Biso      1.000     C          -0.003141           
         C14       1.0000    0.86070   0.96040   0.23210   Biso      1.000     C          -0.09914500000000001          
         C15       1.0000    0.81380   0.27690   0.95680   Biso      1.000     C          -0.016281           
         C16       1.0000    0.72550   0.36020   0.97100   Biso      1.000     C          -0.10388  
         C17       1.0000    0.68460   0.43440   0.06350   Biso      1.000     C          -0.00491  
         C18       1.0000    0.86220   0.19640   0.85790   Biso      1.000     C          0.537846  
         C19       1.0000    0.87250   0.33660   0.21870   Biso      1.000     C          0.5942189999999999  
         C20       1.0000    0.60080   0.52570   0.07890   Biso      1.000     C          0.54032   
         C21       1.0000    0.72780   0.42520   0.14400   Biso      1.000     C          -0.112738           
         C22       1.0000    0.81860   0.34380   0.13230   Biso      1.000     C          -0.003141           
         C23       1.0000    0.86070   0.27170   0.03960   Biso      1.000     C          -0.099146           
         C24       1.0000    0.31380   0.95680   0.27690   Biso      1.000     C          -0.016284           
         C25       1.0000    0.87250   0.88210   0.66340   Biso      1.000     C          0.594217  
         C26       1.0000    0.86220   0.66150   0.80360   Biso      1.000     C          0.5378470000000001  
         C27       1.0000    0.68460   0.62910   0.56560   Biso      1.000     C          -0.004912           
         C28       1.0000    0.72550   0.61080   0.63980   Biso      1.000     C          -0.103874           
         C29       1.0000    0.36070   0.23210   0.96040   Biso      1.000     C          -0.09915  
         C30       1.0000    0.31860   0.21150   0.86770   Biso      1.000     C          -0.003135           
         C31       1.0000    0.22780   0.28120   0.85600   Biso      1.000     C          -0.11274  
         C32       1.0000    0.10080   0.44680   0.92110   Biso      1.000     C          0.540317  
         C33       1.0000    0.37250   0.11790   0.78130   Biso      1.000     C          0.5942189999999999  
         C34       1.0000    0.36220   0.33850   0.14210   Biso      1.000     C          0.537838  
         C35       1.0000    0.18460   0.37090   0.93650   Biso      1.000     C          -0.004911           
         C36       1.0000    0.22550   0.38920   0.02900   Biso      1.000     C          -0.103876           
         C37       1.0000    0.31380   0.32010   0.04320   Biso      1.000     C          -0.016281           
         C38       1.0000    0.36070   0.72830   0.76790   Biso      1.000     C          -0.099151           
         C39       1.0000    0.31860   0.65620   0.78850   Biso      1.000     C          -0.003134           
         C40       1.0000    0.22550   0.97100   0.36020   Biso      1.000     C          -0.103877           
         C41       1.0000    0.22780   0.57480   0.71880   Biso      1.000     C          -0.112739           
         C42       1.0000    0.37250   0.66340   0.88210   Biso      1.000     C          0.594217  
         C43       1.0000    0.36220   0.80360   0.66150   Biso      1.000     C          0.537845  
         C44       1.0000    0.18460   0.56560   0.62910   Biso      1.000     C          -0.00491  
         C45       1.0000    0.22550   0.63980   0.61080   Biso      1.000     C          -0.103875           
         C46       1.0000    0.31380   0.72310   0.67990   Biso      1.000     C          -0.016283000000000002         
         C47       1.0000    0.36070   0.03960   0.27170   Biso      1.000     C          -0.09915  
         C48       1.0000    0.31860   0.13230   0.34380   Biso      1.000     C          -0.003136           
         C49       1.0000    0.22780   0.14400   0.42520   Biso      1.000     C          -0.112738           
         C50       1.0000    0.37250   0.21870   0.33660   Biso      1.000     C          0.594217  
         C51       1.0000    0.36220   0.85790   0.19640   Biso      1.000     C          0.537846  
         C52       1.0000    0.81380   0.67990   0.72310   Biso      1.000     C          -0.016283000000000002         
         C53       1.0000    0.10080   0.47430   0.55320   Biso      1.000     C          0.540319  
         C54       1.0000    0.18460   0.06350   0.43440   Biso      1.000     C          -0.00491  
         Cd1       1.0000    0.98782   0.62594   0.94140   Biso      1.000     Cd          1.013766  
         Cd2       1.0000    0.48782   0.94140   0.62594   Biso      1.000     Cd          1.013766  
         Cd3       1.0000    0.98782   0.31546   0.37406   Biso      1.000     Cd          1.013766  
         Cd4       1.0000    0.98782   0.05860   0.68454   Biso      1.000     Cd          1.013762  
         Cd5       1.0000    0.48782   0.68454   0.05860   Biso      1.000     Cd          1.013766  
         Cd6       1.0000    0.48782   0.37406   0.31546   Biso      1.000     Cd          1.013763  
         H1        1.0000    0.42200   0.18630   0.96850   Biso      1.000     H          0.133719  
         H2        1.0000    0.69400   0.55160   0.63480   Biso      1.000     H          0.13648   
         H3        1.0000    0.69600   0.73270   0.52620   Biso      1.000     H          0.13266   
         H4        1.0000    0.92200   0.81370   0.78220   Biso      1.000     H          0.133718  
         H5        1.0000    0.69400   0.08320   0.44840   Biso      1.000     H          0.136481  
         H6        1.0000    0.69600   0.79350   0.26730   Biso      1.000     H          0.132661  
         H7        1.0000    0.92200   0.96850   0.18630   Biso      1.000     H          0.13372   
         H8        1.0000    0.19600   0.26730   0.79350   Biso      1.000     H          0.132661  
         H9        1.0000    0.69600   0.47380   0.20650   Biso      1.000     H          0.132661  
         H10       1.0000    0.69400   0.36520   0.91680   Biso      1.000     H          0.136479  
         H11       1.0000    0.19400   0.44840   0.08320   Biso      1.000     H          0.13648   
         H12       1.0000    0.19600   0.52620   0.73270   Biso      1.000     H          0.132659  
         H13       1.0000    0.19400   0.63480   0.55160   Biso      1.000     H          0.136478  
         H14       1.0000    0.42200   0.78220   0.81370   Biso      1.000     H          0.133718  
         H15       1.0000    0.19600   0.20650   0.47380   Biso      1.000     H          0.132658  
         H16       1.0000    0.19400   0.91680   0.36520   Biso      1.000     H          0.136477  
         H17       1.0000    0.92200   0.21780   0.03150   Biso      1.000     H          0.133719  
         H18       1.0000    0.42200   0.03150   0.21780   Biso      1.000     H          0.133717  
         O1        1.0000    0.34440   0.78410   0.20700   Biso      1.000     O          -0.46934  
         O2        1.0000    0.42590   0.88010   0.73080   Biso      1.000     O          -0.43234700000000004          
         O3        1.0000    0.27490   0.29200   0.36270   Biso      1.000     O          -0.565457           
         O4        1.0000    0.51680   0.21870   0.30540   Biso      1.000     O          -0.439758           
         O5        1.0000    0.04860   0.00350   0.52870   Biso      1.000     O          -0.456143           
         O6        1.0000    0.08370   0.16310   0.59800   Biso      1.000     O          -0.385862           
         O7        1.0000    0.34440   0.79300   0.57710   Biso      1.000     O          -0.469347           
         O8        1.0000    0.08370   0.40200   0.56510   Biso      1.000     O          -0.385855           
         O9        1.0000    0.51680   0.08670   0.78130   Biso      1.000     O          -0.43976400000000004          
         O10       1.0000    0.51680   0.69460   0.91330   Biso      1.000     O          -0.439759           
         O11       1.0000    0.04860   0.47130   0.47480   Biso      1.000     O          -0.45614399999999994          
         O12       1.0000    0.42590   0.26920   0.14930   Biso      1.000     O          -0.43234399999999995          
         O13       1.0000    0.34440   0.42290   0.21590   Biso      1.000     O          -0.469337           
         O14       1.0000    0.27490   0.07070   0.70800   Biso      1.000     O          -0.565457           
         O15       1.0000    0.42590   0.85070   0.11990   Biso      1.000     O          -0.43234700000000004          
         O16       1.0000    0.27490   0.63730   0.92930   Biso      1.000     O          -0.565459           
         O17       1.0000    0.58370   0.59800   0.16310   Biso      1.000     O          -0.385866           
         O18       1.0000    0.92590   0.14930   0.26920   Biso      1.000     O          -0.43235  
         O19       1.0000    0.01680   0.30540   0.21870   Biso      1.000     O          -0.439762           
         O20       1.0000    0.04860   0.52520   0.99650   Biso      1.000     O          -0.456143           
         O21       1.0000    0.92590   0.73080   0.88010   Biso      1.000     O          -0.43235200000000007          
         O22       1.0000    0.84440   0.57710   0.79300   Biso      1.000     O          -0.469346           
         O23       1.0000    0.77490   0.92930   0.63730   Biso      1.000     O          -0.565455           
         O24       1.0000    0.01680   0.91330   0.69460   Biso      1.000     O          -0.43975699999999995          
         O25       1.0000    0.54860   0.47480   0.47130   Biso      1.000     O          -0.45615100000000003          
         O26       1.0000    0.58370   0.56510   0.40200   Biso      1.000     O          -0.385863           
         O27       1.0000    0.84440   0.21590   0.42290   Biso      1.000     O          -0.46934499999999996          
         O28       1.0000    0.77490   0.70800   0.07070   Biso      1.000     O          -0.565459           
         O29       1.0000    0.01680   0.78130   0.08670   Biso      1.000     O          -0.439758           
         O30       1.0000    0.54860   0.99650   0.52520   Biso      1.000     O          -0.45614099999999996          
         O31       1.0000    0.58370   0.83690   0.43490   Biso      1.000     O          -0.385845           
         O32       1.0000    0.92590   0.11990   0.85070   Biso      1.000     O          -0.432353           
         O33       1.0000    0.84440   0.20700   0.78410   Biso      1.000     O          -0.46934499999999996          
         O34       1.0000    0.77490   0.36270   0.29200   Biso      1.000     O          -0.565454           
         O35       1.0000    0.54860   0.52870   0.00350   Biso      1.000     O          -0.456146           
         O36       1.0000    0.08370   0.43490   0.83690   Biso      1.000     O          -0.385848 