
##########################################################################
#               Crystallographic Information Format file
#               Produced by PyCifRW module
#
#  This is a CIF file.  CIF has been adopted by the International
#  Union of Crystallography as the standard for data archiving and
#  transmission.
#
#  For information on this file format, follow the CIF links at
#  http://www.iucr.org
##########################################################################

data_image0

_cell_length_a                          12.829
_cell_length_b                          18.528
_cell_length_c                          21.3237
_cell_angle_alpha                       95.9025
_cell_angle_beta                        107.507
_cell_angle_gamma                       70.0099
_symmetry_space_group_name_H-M          'P 1'
_symmetry_int_tables_number             1
loop_
  _symmetry_equiv_pos_as_xyz
         'x, y, z' 
loop_
  _atom_site_label
  _atom_site_occupancy
  _atom_site_fract_x
  _atom_site_fract_y
  _atom_site_fract_z
  _atom_site_thermal_displace_type
  _atom_site_B_iso_or_equiv
  _atom_site_type_symbol
  _atom_site_charge
         C1        1.0000    0.44998   0.60920   0.04356   Biso      1.000     C          -0.150442           
         C2        1.0000    0.91244   0.63050   0.53908   Biso      1.000     C          0.106837  
         C3        1.0000    0.84902   0.58420   0.51904   Biso      1.000     C          -0.146322           
         C4        1.0000    0.82782   0.54440   0.56344   Biso      1.000     C          -0.082288           
         C5        1.0000    0.93421   0.67650   0.49922   Biso      1.000     C          0.089842  
         C6        1.0000    0.93209   0.75210   0.51398   Biso      1.000     C          -0.14649  
         C7        1.0000    0.94726   0.80040   0.47052   Biso      1.000     C          -0.110298           
         C8        1.0000    0.97075   0.76980   0.41470   Biso      1.000     C          -0.027656           
         C9        1.0000    0.96570   0.69670   0.39420   Biso      1.000     C          -0.109743           
         C10       1.0000    0.95160   0.65030   0.44140   Biso      1.000     C          -0.151439           
         C11       1.0000    0.98687   0.81740   0.36854   Biso      1.000     C          0.589738  
         C12       1.0000    0.90800   0.97730   0.18180   Biso      1.000     C          0.610561  
         C13       1.0000    0.79374   0.02360   0.13928   Biso      1.000     C          -0.037055           
         C14       1.0000    0.77720   0.03280   0.07200   Biso      1.000     C          -0.08832  
         C15       1.0000    0.66848   0.07230   0.03116   Biso      1.000     C          -0.150381           
         C16       1.0000    0.57580   0.10710   0.05800   Biso      1.000     C          0.081143  
         C17       1.0000    0.59380   0.09930   0.12620   Biso      1.000     C          -0.155765           
         C18       1.0000    0.69915   0.05800   0.16630   Biso      1.000     C          -0.093536           
         C19       1.0000    0.45712   0.14620   0.01464   Biso      1.000     C          0.06756   
         C20       1.0000    0.40642   0.10920   0.95644   Biso      1.000     C          -0.152328           
         C21       1.0000    0.96678   0.62840   0.60536   Biso      1.000     C          -0.165819           
         C22       1.0000    0.29747   0.14460   0.92054   Biso      1.000     C          -0.093109           
         C23       1.0000    0.95267   0.58180   0.64954   Biso      1.000     C          -0.115952           
         C24       1.0000    0.86330   0.48960   0.67020   Biso      1.000     C          0.638644  
         C25       1.0000    0.56501   0.82350   0.49922   Biso      1.000     C          0.090296  
         C26       1.0000    0.58189   0.74790   0.51398   Biso      1.000     C          -0.147931           
         C27       1.0000    0.52326   0.69960   0.47052   Biso      1.000     C          -0.110922           
         C28       1.0000    0.42850   0.80330   0.39420   Biso      1.000     C          -0.108674           
         C29       1.0000    0.48980   0.84970   0.44140   Biso      1.000     C          -0.15236  
         C30       1.0000    0.38167   0.68260   0.36854   Biso      1.000     C          0.589585  
         C31       1.0000    0.72620   0.47730   0.81820   Biso      1.000     C          0.611638  
         C32       1.0000    0.65446   0.52360   0.86072   Biso      1.000     C          -0.036697           
         C33       1.0000    0.70520   0.53280   0.92800   Biso      1.000     C          -0.087571           
         C34       1.0000    0.63732   0.57230   0.96884   Biso      1.000     C          -0.151085           
         C35       1.0000    0.51780   0.60710   0.94200   Biso      1.000     C          0.08088   
         C36       1.0000    0.46760   0.59930   0.87380   Biso      1.000     C          -0.15678  
         C37       1.0000    0.53285   0.55800   0.83370   Biso      1.000     C          -0.094001           
         C38       1.0000    0.44248   0.64620   0.98536   Biso      1.000     C          0.067978  
         C39       1.0000    0.37693   0.64460   0.07946   Biso      1.000     C          -0.093953           
         C40       1.0000    0.29703   0.72000   0.06546   Biso      1.000     C          -0.033624           
         C41       1.0000    0.29208   0.75620   0.01256   Biso      1.000     C          -0.102758           
         C42       1.0000    0.36107   0.72060   0.97114   Biso      1.000     C          -0.154491           
         C43       1.0000    0.22176   0.75650   0.10992   Biso      1.000     C          0.618222  
         C44       1.0000    0.87674   0.53870   0.62668   Biso      1.000     C          -0.035511           
         C45       1.0000    0.23157   0.22000   0.93454   Biso      1.000     C          -0.032272           
         C46       1.0000    0.27952   0.25620   0.98744   Biso      1.000     C          -0.101656           
         C47       1.0000    0.38993   0.22060   0.02886   Biso      1.000     C          -0.155496           
         C48       1.0000    0.62307   0.35540   0.92054   Biso      1.000     C          -0.093983           
         C49       1.0000    0.70297   0.28000   0.93454   Biso      1.000     C          -0.033621           
         C50       1.0000    0.70792   0.24380   0.98744   Biso      1.000     C          -0.102758           
         C51       1.0000    0.63893   0.27940   0.02886   Biso      1.000     C          -0.154491           
         C52       1.0000    0.77824   0.24350   0.89008   Biso      1.000     C          0.618222  
         C53       1.0000    0.13670   0.51040   0.32980   Biso      1.000     C          0.638649  
         C54       1.0000    0.12326   0.46130   0.37332   Biso      1.000     C          -0.035555           
         C55       1.0000    0.04733   0.41820   0.35046   Biso      1.000     C          -0.115946           
         C56       1.0000    0.03322   0.37160   0.39464   Biso      1.000     C          -0.165827           
         C57       1.0000    0.08756   0.36950   0.46092   Biso      1.000     C          0.106844  
         C58       1.0000    0.15098   0.41580   0.48096   Biso      1.000     C          -0.146328           
         C59       1.0000    0.17218   0.45560   0.43656   Biso      1.000     C          -0.082244           
         C60       1.0000    0.06579   0.32350   0.50078   Biso      1.000     C          0.089842  
         C61       1.0000    0.06791   0.24790   0.48602   Biso      1.000     C          -0.14649  
         C62       1.0000    0.05274   0.19960   0.52948   Biso      1.000     C          -0.110299           
         C63       1.0000    0.02925   0.23020   0.58530   Biso      1.000     C          -0.027656           
         C64       1.0000    0.03430   0.30330   0.60580   Biso      1.000     C          -0.109743           
         C65       1.0000    0.04840   0.34970   0.55860   Biso      1.000     C          -0.151438           
         C66       1.0000    0.01313   0.18260   0.63146   Biso      1.000     C          0.589737  
         C67       1.0000    0.55002   0.39080   0.95644   Biso      1.000     C          -0.150413           
         C68       1.0000    0.55752   0.35380   0.01464   Biso      1.000     C          0.067975  
         C69       1.0000    0.46715   0.44200   0.16630   Biso      1.000     C          -0.094008           
         C70       1.0000    0.53240   0.40070   0.12620   Biso      1.000     C          -0.156773           
         C71       1.0000    0.11184   0.25650   0.89008   Biso      1.000     C          0.615684  
         C72       1.0000    0.19310   0.98960   0.32980   Biso      1.000     C          0.639832  
         C73       1.0000    0.25006   0.03870   0.37332   Biso      1.000     C          -0.033726           
         C74       1.0000    0.30313   0.08180   0.35046   Biso      1.000     C          -0.115578           
         C75       1.0000    0.36142   0.12840   0.39464   Biso      1.000     C          -0.165747           
         C76       1.0000    0.37336   0.13050   0.46092   Biso      1.000     C          0.106443  
         C77       1.0000    0.32998   0.08420   0.48096   Biso      1.000     C          -0.144977           
         C78       1.0000    0.26438   0.04440   0.43656   Biso      1.000     C          -0.086048           
         C79       1.0000    0.43499   0.17650   0.50078   Biso      1.000     C          0.090299  
         C80       1.0000    0.73562   0.95560   0.56344   Biso      1.000     C          -0.086088           
         C81       1.0000    0.41811   0.25210   0.48602   Biso      1.000     C          -0.147935           
         C82       1.0000    0.55605   0.26980   0.58530   Biso      1.000     C          -0.028221           
         C83       1.0000    0.57150   0.19670   0.60580   Biso      1.000     C          -0.108671           
         C84       1.0000    0.51020   0.15030   0.55860   Biso      1.000     C          -0.15236  
         C85       1.0000    0.61833   0.31740   0.63146   Biso      1.000     C          0.589587  
         C86       1.0000    0.27380   0.52270   0.18180   Biso      1.000     C          0.611638  
         C87       1.0000    0.34554   0.47640   0.13928   Biso      1.000     C          -0.036697           
         C88       1.0000    0.29480   0.46720   0.07200   Biso      1.000     C          -0.087571           
         C89       1.0000    0.36268   0.42770   0.03116   Biso      1.000     C          -0.151085           
         C90       1.0000    0.48220   0.39290   0.05800   Biso      1.000     C          0.080879  
         C91       1.0000    0.47674   0.30040   0.52948   Biso      1.000     C          -0.110897           
         C92       1.0000    0.67002   0.91580   0.51904   Biso      1.000     C          -0.145002           
         C93       1.0000    0.44395   0.73020   0.41470   Biso      1.000     C          -0.028195           
         C94       1.0000    0.63858   0.87160   0.60536   Biso      1.000     C          -0.165749           
         C95       1.0000    0.62664   0.86950   0.53908   Biso      1.000     C          0.106471  
         C96       1.0000    0.09200   0.02270   0.81820   Biso      1.000     C          0.610561  
         C97       1.0000    0.20626   0.97640   0.86072   Biso      1.000     C          -0.037054           
         C98       1.0000    0.33152   0.92770   0.96884   Biso      1.000     C          -0.150381           
         C99       1.0000    0.42420   0.89290   0.94200   Biso      1.000     C          0.081143  
         C100      1.0000    0.40620   0.90070   0.87380   Biso      1.000     C          -0.155765           
         C101      1.0000    0.30085   0.94200   0.83370   Biso      1.000     C          -0.093536           
         C102      1.0000    0.54288   0.85380   0.98536   Biso      1.000     C          0.06756   
         C103      1.0000    0.59358   0.89080   0.04356   Biso      1.000     C          -0.152328           
         C104      1.0000    0.22280   0.96720   0.92800   Biso      1.000     C          -0.08832  
         C105      1.0000    0.76843   0.78000   0.06546   Biso      1.000     C          -0.032272           
         C106      1.0000    0.72048   0.74380   0.01256   Biso      1.000     C          -0.101656           
         C107      1.0000    0.61007   0.77940   0.97114   Biso      1.000     C          -0.155496           
         C108      1.0000    0.88816   0.74350   0.10992   Biso      1.000     C          0.615684  
         C109      1.0000    0.80690   0.01040   0.67020   Biso      1.000     C          0.639828  
         C110      1.0000    0.74994   0.96130   0.62668   Biso      1.000     C          -0.033687           
         C111      1.0000    0.70253   0.85540   0.07946   Biso      1.000     C          -0.093108           
         C112      1.0000    0.69687   0.91820   0.64954   Biso      1.000     C          -0.115581           
         H1        1.0000    0.38840   0.62270   0.85580   Biso      1.000     H          0.120531  
         H2        1.0000    0.49810   0.55260   0.78920   Biso      1.000     H          0.127278  
         H3        1.0000    0.50500   0.56120   0.05620   Biso      1.000     H          0.115486  
         H4        1.0000    0.37880   0.61860   0.11500   Biso      1.000     H          0.111131  
         H5        1.0000    0.24150   0.80610   0.00340   Biso      1.000     H          0.113263  
         H6        1.0000    0.35330   0.74620   0.93380   Biso      1.000     H          0.113639  
         H7        1.0000    0.81810   0.57810   0.47420   Biso      1.000     H          0.113291  
         H8        1.0000    0.01430   0.65830   0.62200   Biso      1.000     H          0.114402  
         H9        1.0000    0.77350   0.51950   0.54620   Biso      1.000     H          0.110598  
         H10       1.0000    0.92040   0.77250   0.55400   Biso      1.000     H          0.105358  
         H11       1.0000    0.94090   0.85140   0.48120   Biso      1.000     H          0.126659  
         H12       1.0000    0.67110   0.57550   0.01380   Biso      1.000     H          0.121015  
         H13       1.0000    0.97100   0.67800   0.35280   Biso      1.000     H          0.119433  
         H14       1.0000    0.99400   0.57990   0.69380   Biso      1.000     H          0.110514  
         H15       1.0000    0.78500   0.51230   0.94540   Biso      1.000     H          0.124006  
         H16       1.0000    0.58050   0.75380   0.93380   Biso      1.000     H          0.113725  
         H17       1.0000    0.38180   0.82200   0.35280   Biso      1.000     H          0.118781  
         H18       1.0000    0.54030   0.64860   0.48120   Biso      1.000     H          0.127408  
         H19       1.0000    0.63360   0.72750   0.55400   Biso      1.000     H          0.10638   
         H20       1.0000    0.77270   0.98050   0.54620   Biso      1.000     H          0.111769  
         H21       1.0000    0.65610   0.92190   0.47420   Biso      1.000     H          0.113348  
         H22       1.0000    0.60770   0.84170   0.62200   Biso      1.000     H          0.114369  
         H23       1.0000    0.69980   0.92010   0.69380   Biso      1.000     H          0.110309  
         H24       1.0000    0.76190   0.69390   0.00340   Biso      1.000     H          0.112834  
         H25       1.0000    0.73620   0.88140   0.11500   Biso      1.000     H          0.111165  
         H26       1.0000    0.55120   0.93880   0.05620   Biso      1.000     H          0.115897  
         H27       1.0000    0.29110   0.94740   0.78920   Biso      1.000     H          0.126933  
         H28       1.0000    0.46740   0.87730   0.85580   Biso      1.000     H          0.119526  
         H29       1.0000    0.34270   0.92450   0.01380   Biso      1.000     H          0.121242  
         H30       1.0000    0.16040   0.98770   0.94540   Biso      1.000     H          0.124607  
         H31       1.0000    0.47500   0.90020   0.43020   Biso      1.000     H          0.105467  
         H32       1.0000    0.83960   0.01230   0.05460   Biso      1.000     H          0.124607  
         H33       1.0000    0.95520   0.59980   0.43020   Biso      1.000     H          0.105009  
         H34       1.0000    0.53260   0.12270   0.14420   Biso      1.000     H          0.119526  
         H35       1.0000    0.04480   0.40020   0.56980   Biso      1.000     H          0.105009  
         H36       1.0000    0.02900   0.32200   0.64720   Biso      1.000     H          0.119433  
         H37       1.0000    0.05910   0.14860   0.51880   Biso      1.000     H          0.126659  
         H38       1.0000    0.65730   0.07550   0.98620   Biso      1.000     H          0.121242  
         H39       1.0000    0.22650   0.48050   0.45380   Biso      1.000     H          0.110595  
         H40       1.0000    0.18190   0.42190   0.52580   Biso      1.000     H          0.113291  
         H41       1.0000    0.98570   0.34170   0.37800   Biso      1.000     H          0.114403  
         H42       1.0000    0.00600   0.42010   0.30620   Biso      1.000     H          0.110514  
         H43       1.0000    0.64670   0.25380   0.06620   Biso      1.000     H          0.113639  
         H44       1.0000    0.75850   0.19390   0.99660   Biso      1.000     H          0.113263  
         H45       1.0000    0.62120   0.38140   0.88500   Biso      1.000     H          0.111133  
         H46       1.0000    0.49500   0.43880   0.94380   Biso      1.000     H          0.115484  
         H47       1.0000    0.50190   0.44740   0.21080   Biso      1.000     H          0.127278  
         H48       1.0000    0.61160   0.37730   0.14420   Biso      1.000     H          0.12053   
         H49       1.0000    0.07960   0.22750   0.44600   Biso      1.000     H          0.105358  
         H50       1.0000    0.21500   0.48770   0.05460   Biso      1.000     H          0.124006  
         H51       1.0000    0.32890   0.42450   0.98620   Biso      1.000     H          0.121015  
         H52       1.0000    0.70890   0.05260   0.21080   Biso      1.000     H          0.126933  
         H53       1.0000    0.26380   0.11860   0.88500   Biso      1.000     H          0.111165  
         H54       1.0000    0.23810   0.30610   0.99660   Biso      1.000     H          0.112834  
         H55       1.0000    0.41950   0.24620   0.06620   Biso      1.000     H          0.113725  
         H56       1.0000    0.30020   0.07990   0.30620   Biso      1.000     H          0.110309  
         H57       1.0000    0.44880   0.06120   0.94380   Biso      1.000     H          0.115897  
         H58       1.0000    0.34390   0.07810   0.52580   Biso      1.000     H          0.113346  
         H59       1.0000    0.22730   0.01950   0.45380   Biso      1.000     H          0.111766  
         H60       1.0000    0.36640   0.27250   0.44600   Biso      1.000     H          0.10638   
         H61       1.0000    0.45970   0.35140   0.51880   Biso      1.000     H          0.127406  
         H62       1.0000    0.61820   0.17800   0.64720   Biso      1.000     H          0.118781  
         H63       1.0000    0.39230   0.15830   0.37800   Biso      1.000     H          0.114368  
         H64       1.0000    0.52500   0.09980   0.56980   Biso      1.000     H          0.105467  
         O1        1.0000    0.14136   0.95922   0.35492   Biso      1.000     O          -0.535479           
         O2        1.0000    0.19146   0.98450   0.27052   Biso      1.000     O          -0.608945           
         O3        1.0000    0.91242   0.96323   0.23884   Biso      1.000     O          -0.518553           
         O4        1.0000    0.99276   0.95700   0.15632   Biso      1.000     O          -0.568951           
         O5        1.0000    0.99256   0.79360   0.31292   Biso      1.000     O          -0.471468           
         O6        1.0000    0.99169   0.87970   0.38198   Biso      1.000     O          -0.466017           
         O7        1.0000    0.17975   0.82677   0.11090   Biso      1.000     O          -0.575408           
         O8        1.0000    0.06330   0.20932   0.85700   Biso      1.000     O          -0.527051           
         O9        1.0000    0.15064   0.83125   0.24908   Biso      1.000     O          -0.724    
         O10       1.0000    0.06885   0.32677   0.88910   Biso      1.000     O          -0.574616           
         O11       1.0000    0.16356   0.54300   0.15632   Biso      1.000     O          -0.569732           
         O12       1.0000    0.82025   0.17323   0.88910   Biso      1.000     O          -0.575409           
         O13       1.0000    0.79370   0.29068   0.85700   Biso      1.000     O          -0.528412           
         O14       1.0000    0.21356   0.54078   0.35492   Biso      1.000     O          -0.534797           
         O15       1.0000    0.07906   0.51550   0.27052   Biso      1.000     O          -0.607782           
         O16       1.0000    0.32642   0.53677   0.23884   Biso      1.000     O          -0.518381           
         O17       1.0000    0.90156   0.33125   0.75092   Biso      1.000     O          -0.723746           
         O18       1.0000    0.67964   0.29360   0.68708   Biso      1.000     O          -0.471316           
         O19       1.0000    0.20630   0.70932   0.14300   Biso      1.000     O          -0.528413           
         O20       1.0000    0.60971   0.37970   0.61802   Biso      1.000     O          -0.465342           
         O21       1.0000    0.00831   0.12030   0.61802   Biso      1.000     O          -0.466016           
         O22       1.0000    0.78644   0.45922   0.64508   Biso      1.000     O          -0.534796           
         O23       1.0000    0.84936   0.16875   0.75092   Biso      1.000     O          -0.724    
         O24       1.0000    0.67358   0.46323   0.76116   Biso      1.000     O          -0.518381           
         O25       1.0000    0.92094   0.48450   0.72948   Biso      1.000     O          -0.607782           
         O26       1.0000    0.00724   0.04300   0.84368   Biso      1.000     O          -0.568951           
         O27       1.0000    0.08758   0.03677   0.76116   Biso      1.000     O          -0.518553           
         O28       1.0000    0.80854   0.01550   0.72948   Biso      1.000     O          -0.608945           
         O29       1.0000    0.85864   0.04078   0.64508   Biso      1.000     O          -0.535478           
         O30       1.0000    0.00744   0.20640   0.68708   Biso      1.000     O          -0.471467           
         O31       1.0000    0.93115   0.67323   0.11090   Biso      1.000     O          -0.574616           
         O32       1.0000    0.39029   0.62030   0.38198   Biso      1.000     O          -0.465341           
         O33       1.0000    0.32036   0.70640   0.31292   Biso      1.000     O          -0.471316           
         O34       1.0000    0.09844   0.66875   0.24908   Biso      1.000     O          -0.723746           
         O35       1.0000    0.83644   0.45700   0.84368   Biso      1.000     O          -0.569732           
         O36       1.0000    0.93670   0.79068   0.14300   Biso      1.000     O          -0.527051           
         Zn1       1.0000    0.90279   0.25000   0.80558   Biso      1.000     Zn          0.973421  
         Zn2       1.0000    0.09721   0.75000   0.19442   Biso      1.000     Zn          0.973421  
         Zn3       1.0000    0.25546   0.60360   0.30294   Biso      1.000     Zn          0.952296  
         Zn4       1.0000    0.02020   0.59377   0.19182   Biso      1.000     Zn          1.053496  
         Zn5       1.0000    0.04748   0.89640   0.30294   Biso      1.000     Zn          0.953206  
         Zn6       1.0000    0.17162   0.90623   0.19182   Biso      1.000     Zn          1.054318  
         Zn7       1.0000    0.74454   0.39640   0.69706   Biso      1.000     Zn          0.952295  
         Zn8       1.0000    0.97980   0.40623   0.80818   Biso      1.000     Zn          1.053497  
         Zn9       1.0000    0.95252   0.10360   0.69706   Biso      1.000     Zn          0.953206  
         Zn10      1.0000    0.82838   0.09377   0.80818   Biso      1.000     Zn          1.054319 