
##########################################################################
#               Crystallographic Information Format file
#               Produced by PyCifRW module
#
#  This is a CIF file.  CIF has been adopted by the International
#  Union of Crystallography as the standard for data archiving and
#  transmission.
#
#  For information on this file format, follow the CIF links at
#  http://www.iucr.org
##########################################################################

data_image0

_cell_length_a                          16.8098
_cell_length_b                          16.8098
_cell_length_c                          16.8098
_cell_angle_alpha                       63.1351
_cell_angle_beta                        84.4783
_cell_angle_gamma                       116.865
_symmetry_space_group_name_H-M          'P 1'
_symmetry_int_tables_number             1
loop_
  _symmetry_equiv_pos_as_xyz
         'x, y, z' 
loop_
  _atom_site_label
  _atom_site_occupancy
  _atom_site_fract_x
  _atom_site_fract_y
  _atom_site_fract_z
  _atom_site_thermal_displace_type
  _atom_site_B_iso_or_equiv
  _atom_site_type_symbol
  _atom_site_charge
         C1        1.0000    0.89910   0.30100   0.10090   Biso      1.000     C          -0.12828900000000001          
         C2        1.0000    0.98170   0.37620   0.01830   Biso      1.000     C          -0.152456           
         C3        1.0000    0.48010   0.00000   0.76490   Biso      1.000     C          0.669067  
         C4        1.0000    0.85440   0.32980   0.14560   Biso      1.000     C          -0.032477           
         C5        1.0000    0.76490   0.24500   0.23510   Biso      1.000     C          0.6689    
         C6        1.0000    0.45660   0.56120   0.54340   Biso      1.000     C          -0.165279           
         C7        1.0000    0.53750   0.51440   0.46250   Biso      1.000     C          0.096212  
         C8        1.0000    0.02310   0.48560   0.97690   Biso      1.000     C          0.09650700000000001           
         C9        1.0000    0.60550   0.62380   0.39450   Biso      1.000     C          -0.15140699999999999          
         C10       1.0000    0.52460   0.67020   0.47540   Biso      1.000     C          -0.0316   
         C11       1.0000    0.51990   0.75500   0.48010   Biso      1.000     C          0.668956  
         C12       1.0000    0.89540   0.00000   0.54340   Biso      1.000     C          -0.16506700000000002          
         C13       1.0000    0.02310   0.00000   0.46250   Biso      1.000     C          0.096524  
         C14       1.0000    0.98170   0.00000   0.39450   Biso      1.000     C          -0.151573           
         C15       1.0000    0.89910   0.00000   0.40190   Biso      1.000     C          -0.12108699999999999          
         C16       1.0000    0.59810   0.69900   0.40190   Biso      1.000     C          -0.11863599999999999          
         C17       1.0000    0.85440   0.00000   0.47540   Biso      1.000     C          -0.03165  
         C18       1.0000    0.89540   0.43880   0.10460   Biso      1.000     C          -0.16502999999999998          
         C19       1.0000    0.14560   0.67020   0.85440   Biso      1.000     C          -0.03248  
         C20       1.0000    0.01830   0.00000   0.60550   Biso      1.000     C          -0.15157400000000001          
         C21       1.0000    0.10090   0.00000   0.59810   Biso      1.000     C          -0.12108699999999999          
         C22       1.0000    0.14560   0.00000   0.52460   Biso      1.000     C          -0.031653           
         C23       1.0000    0.23510   0.00000   0.51990   Biso      1.000     C          0.669061  
         C24       1.0000    0.54340   0.43880   0.45660   Biso      1.000     C          -0.165267           
         C25       1.0000    0.46250   0.48560   0.53750   Biso      1.000     C          0.096225  
         C26       1.0000    0.23510   0.75500   0.76490   Biso      1.000     C          0.6689    
         C27       1.0000    0.39450   0.37620   0.60550   Biso      1.000     C          -0.151408           
         C28       1.0000    0.47540   0.32980   0.52460   Biso      1.000     C          -0.031602           
         C29       1.0000    0.48010   0.24500   0.51990   Biso      1.000     C          0.668956  
         C30       1.0000    0.10460   0.56120   0.89540   Biso      1.000     C          -0.165017           
         C31       1.0000    0.97690   0.51440   0.02310   Biso      1.000     C          0.09652000000000001           
         C32       1.0000    0.01830   0.62380   0.98170   Biso      1.000     C          -0.15246300000000002          
         C33       1.0000    0.10090   0.69900   0.89910   Biso      1.000     C          -0.12828299999999998          
         C34       1.0000    0.40190   0.30100   0.59810   Biso      1.000     C          -0.11863499999999999          
         C35       1.0000    0.76490   0.00000   0.48010   Biso      1.000     C          0.669061  
         C36       1.0000    0.45660   0.00000   0.10460   Biso      1.000     C          -0.16506600000000002          
         C37       1.0000    0.53750   0.00000   0.97690   Biso      1.000     C          0.096524  
         C38       1.0000    0.54340   0.00000   0.89540   Biso      1.000     C          -0.165054           
         C39       1.0000    0.46250   0.00000   0.02310   Biso      1.000     C          0.096537  
         C40       1.0000    0.39450   0.00000   0.98170   Biso      1.000     C          -0.151559           
         C41       1.0000    0.40190   0.00000   0.89910   Biso      1.000     C          -0.121083           
         C42       1.0000    0.47540   0.00000   0.85440   Biso      1.000     C          -0.031655           
         C43       1.0000    0.97690   0.00000   0.53750   Biso      1.000     C          0.096537  
         C44       1.0000    0.10460   0.00000   0.45660   Biso      1.000     C          -0.165053           
         C45       1.0000    0.60550   0.00000   0.01830   Biso      1.000     C          -0.151558           
         C46       1.0000    0.59810   0.00000   0.10090   Biso      1.000     C          -0.121084           
         C47       1.0000    0.52460   0.00000   0.14560   Biso      1.000     C          -0.031654           
         C48       1.0000    0.51990   0.00000   0.23510   Biso      1.000     C          0.669067  
         H1        1.0000    0.13320   0.00000   0.40640   Biso      1.000     H          0.12032899999999999           
         H2        1.0000    0.59360   0.00000   0.86680   Biso      1.000     H          0.120331  
         H3        1.0000    0.64420   0.00000   0.12740   Biso      1.000     H          0.12006900000000001           
         H4        1.0000    0.65590   0.00000   0.99030   Biso      1.000     H          0.11965799999999999           
         H5        1.0000    0.40640   0.00000   0.13320   Biso      1.000     H          0.120332  
         H6        1.0000    0.87260   0.00000   0.35580   Biso      1.000     H          0.120066  
         H7        1.0000    0.00970   0.00000   0.34410   Biso      1.000     H          0.119656  
         H8        1.0000    0.86680   0.00000   0.59360   Biso      1.000     H          0.12032999999999999           
         H9        1.0000    0.64420   0.77160   0.35580   Biso      1.000     H          0.11826700000000001           
         H10       1.0000    0.65590   0.64620   0.34410   Biso      1.000     H          0.11951099999999999           
         H11       1.0000    0.40640   0.53960   0.59360   Biso      1.000     H          0.120281  
         H12       1.0000    0.87260   0.22840   0.12740   Biso      1.000     H          0.12968   
         H13       1.0000    0.00970   0.35380   0.99030   Biso      1.000     H          0.119603  
         H14       1.0000    0.34410   0.00000   0.00970   Biso      1.000     H          0.11965799999999999           
         H15       1.0000    0.12740   0.77160   0.87260   Biso      1.000     H          0.129679  
         H16       1.0000    0.99030   0.64620   0.00970   Biso      1.000     H          0.119603  
         H17       1.0000    0.13320   0.53960   0.86680   Biso      1.000     H          0.1203    
         H18       1.0000    0.35580   0.22840   0.64420   Biso      1.000     H          0.11826700000000001           
         H19       1.0000    0.34410   0.35380   0.65590   Biso      1.000     H          0.11951099999999999           
         H20       1.0000    0.59360   0.46040   0.40640   Biso      1.000     H          0.12028   
         H21       1.0000    0.12740   0.00000   0.64420   Biso      1.000     H          0.120066  
         H22       1.0000    0.99030   0.00000   0.65590   Biso      1.000     H          0.119656  
         H23       1.0000    0.35580   0.00000   0.87260   Biso      1.000     H          0.12006900000000001           
         H24       1.0000    0.86680   0.46040   0.13320   Biso      1.000     H          0.120301  
         Hf1       1.0000    0.60827   0.00000   0.39173   Biso      1.000     Hf          2.16057   
         Hf2       1.0000    0.59976   0.19952   0.40024   Biso      1.000     Hf          2.133239  
         Hf3       1.0000    0.40024   0.80048   0.59976   Biso      1.000     Hf          2.133239  
         Hf4       1.0000    0.59976   0.00000   0.59977   Biso      1.000     Hf          2.133283  
         Hf5       1.0000    0.40024   0.00000   0.40023   Biso      1.000     Hf          2.133283  
         Hf6       1.0000    0.39173   0.00000   0.60827   Biso      1.000     Hf          2.16057   
         O1        1.0000    0.54800   0.10040   0.55240   Biso      1.000     O          -1.0760129999999999           
         O2        1.0000    0.34720   0.89960   0.55240   Biso      1.000     O          -1.07595  
         O3        1.0000    0.55240   0.10040   0.34720   Biso      1.000     O          -1.075995           
         O4        1.0000    0.55240   0.89960   0.54800   Biso      1.000     O          -1.075974           
         O5        1.0000    0.65280   0.10040   0.44760   Biso      1.000     O          -1.07595  
         O6        1.0000    0.45200   0.89960   0.44760   Biso      1.000     O          -1.0760129999999999           
         O7        1.0000    0.55040   0.00000   0.72760   Biso      1.000     O          -0.6501859999999999           
         O8        1.0000    0.41770   0.00000   0.73290   Biso      1.000     O          -0.536862           
         O9        1.0000    0.27240   0.00000   0.44960   Biso      1.000     O          -0.650192           
         O10       1.0000    0.26710   1.00000   0.58230   Biso      1.000     O          -0.536881           
         O11       1.0000    0.55040   0.27800   0.44960   Biso      1.000     O          -0.650301           
         O12       1.0000    0.27240   0.72200   0.72760   Biso      1.000     O          -0.6502319999999999           
         O13       1.0000    0.44760   0.10040   0.45200   Biso      1.000     O          -1.075974           
         O14       1.0000    0.26710   0.84940   0.73290   Biso      1.000     O          -0.537447           
         O15       1.0000    0.72760   0.27800   0.27240   Biso      1.000     O          -0.6502319999999999           
         O16       1.0000    0.73290   0.15060   0.26710   Biso      1.000     O          -0.537447           
         O17       1.0000    0.44960   0.72200   0.55040   Biso      1.000     O          -0.650301           
         O18       1.0000    0.58230   0.84940   0.41770   Biso      1.000     O          -0.536695           
         O19       1.0000    0.72760   0.00000   0.55040   Biso      1.000     O          -0.650192           
         O20       1.0000    0.73290   0.00000   0.41770   Biso      1.000     O          -0.536881           
         O21       1.0000    0.44960   0.00000   0.27240   Biso      1.000     O          -0.6501859999999999           
         O22       1.0000    0.58230   0.00000   0.26710   Biso      1.000     O          -0.536863           
         O23       1.0000    0.41770   0.15060   0.58230   Biso      1.000     O          -0.536695           
         O24       1.0000    0.44760   0.89960   0.65280   Biso      1.000     O          -1.075995 