
##########################################################################
#               Crystallographic Information Format file
#               Produced by PyCifRW module
#
#  This is a CIF file.  CIF has been adopted by the International
#  Union of Crystallography as the standard for data archiving and
#  transmission.
#
#  For information on this file format, follow the CIF links at
#  http://www.iucr.org
##########################################################################

data_image0

_cell_length_a                          16.8416
_cell_length_b                          16.8416
_cell_length_c                          16.8416
_cell_angle_alpha                       96.2812
_cell_angle_beta                        113.558
_cell_angle_gamma                       119.401
_symmetry_space_group_name_H-M          'P 1'
_symmetry_int_tables_number             1
loop_
  _symmetry_equiv_pos_as_xyz
         'x, y, z' 
loop_
  _atom_site_label
  _atom_site_occupancy
  _atom_site_fract_x
  _atom_site_fract_y
  _atom_site_fract_z
  _atom_site_thermal_displace_type
  _atom_site_B_iso_or_equiv
  _atom_site_type_symbol
  _atom_site_charge
         C1        1.0000    0.79900   0.39710   0.90270   Biso      1.000     C          -0.11276  
         C2        1.0000    0.93590   0.54690   0.03740   Biso      1.000     C          -0.171136           
         C3        1.0000    0.25490   0.51660   0.02370   Biso      1.000     C          0.671026  
         C4        1.0000    0.82900   0.47560   0.97220   Biso      1.000     C          -0.030377           
         C5        1.0000    0.74510   0.48340   0.97630   Biso      1.000     C          0.671026  
         C6        1.0000    0.87480   0.97630   0.48630   Biso      1.000     C          -0.152983           
         C7        1.0000    0.98500   0.01970   0.52550   Biso      1.000     C          0.089839  
         C8        1.0000    0.01500   0.54050   0.03470   Biso      1.000     C          0.089815  
         C9        1.0000    0.06410   0.10150   0.61100   Biso      1.000     C          -0.171164           
         C10       1.0000    0.17100   0.14320   0.64660   Biso      1.000     C          -0.030334           
         C11       1.0000    0.25490   0.23120   0.73830   Biso      1.000     C          0.671011  
         C12       1.0000    0.49000   0.38850   0.51370   Biso      1.000     C          -0.152971           
         C13       1.0000    0.49420   0.45950   0.47450   Biso      1.000     C          0.089812  
         C14       1.0000    0.49050   0.45310   0.38900   Biso      1.000     C          -0.171169           
         C15       1.0000    0.50560   0.60290   0.40190   Biso      1.000     C          -0.112773           
         C16       1.0000    0.20100   0.10370   0.59810   Biso      1.000     C          -0.112779           
         C17       1.0000    0.49660   0.52440   0.35340   Biso      1.000     C          -0.030316           
         C18       1.0000    0.12520   0.61150   0.10150   Biso      1.000     C          -0.152979           
         C19       1.0000    0.49660   0.14320   0.97220   Biso      1.000     C          -0.030402           
         C20       1.0000    0.93590   0.89850   0.38900   Biso      1.000     C          -0.171164           
         C21       1.0000    0.79900   0.89630   0.40190   Biso      1.000     C          -0.112778           
         C22       1.0000    0.82900   0.85680   0.35340   Biso      1.000     C          -0.030332           
         C23       1.0000    0.74510   0.76880   0.26170   Biso      1.000     C          0.671011  
         C24       1.0000    0.51000   0.61150   0.48630   Biso      1.000     C          -0.152968           
         C25       1.0000    0.50580   0.54050   0.52550   Biso      1.000     C          0.089812  
         C26       1.0000    0.49290   0.23120   0.97630   Biso      1.000     C          0.67103   
         C27       1.0000    0.50950   0.54690   0.61100   Biso      1.000     C          -0.171169           
         C28       1.0000    0.50340   0.47560   0.64660   Biso      1.000     C          -0.030319           
         C29       1.0000    0.50710   0.48340   0.73830   Biso      1.000     C          0.671022  
         C30       1.0000    0.49000   0.97630   0.10150   Biso      1.000     C          -0.154131           
         C31       1.0000    0.49420   0.01970   0.03470   Biso      1.000     C          0.092223  
         C32       1.0000    0.49050   0.10150   0.03740   Biso      1.000     C          -0.172287           
         C33       1.0000    0.50560   0.10370   0.90270   Biso      1.000     C          -0.112804           
         C34       1.0000    0.49440   0.39710   0.59810   Biso      1.000     C          -0.112768           
         C35       1.0000    0.49290   0.51660   0.26170   Biso      1.000     C          0.671022  
         C36       1.0000    0.51000   0.02370   0.89850   Biso      1.000     C          -0.154129           
         C37       1.0000    0.50580   0.98030   0.96530   Biso      1.000     C          0.092223  
         C38       1.0000    0.87480   0.38850   0.89850   Biso      1.000     C          -0.152977           
         C39       1.0000    0.98500   0.45950   0.96530   Biso      1.000     C          0.089815  
         C40       1.0000    0.06410   0.45310   0.96260   Biso      1.000     C          -0.171136           
         C41       1.0000    0.20100   0.60290   0.09730   Biso      1.000     C          -0.112757           
         C42       1.0000    0.17100   0.52440   0.02780   Biso      1.000     C          -0.030377           
         C43       1.0000    0.01500   0.98030   0.47450   Biso      1.000     C          0.089838  
         C44       1.0000    0.12520   0.02370   0.51370   Biso      1.000     C          -0.15298  
         C45       1.0000    0.50950   0.89850   0.96260   Biso      1.000     C          -0.172288           
         C46       1.0000    0.49440   0.89630   0.09730   Biso      1.000     C          -0.112804           
         C47       1.0000    0.50340   0.85680   0.02780   Biso      1.000     C          -0.030399           
         C48       1.0000    0.50710   0.76880   0.02370   Biso      1.000     C          0.67103   
         H1        1.0000    0.14690   0.99790   0.48220   Biso      1.000     H          0.117307  
         H2        1.0000    0.85310   0.33530   0.85100   Biso      1.000     H          0.117306  
         H3        1.0000    0.49120   0.86860   0.14180   Biso      1.000     H          0.119945  
         H4        1.0000    0.51610   0.87220   0.91610   Biso      1.000     H          0.121328  
         H5        1.0000    0.51570   0.99790   0.85100   Biso      1.000     H          0.117309  
         H6        1.0000    0.50880   0.65060   0.37740   Biso      1.000     H          0.119942  
         H7        1.0000    0.48390   0.40000   0.35610   Biso      1.000     H          0.121356  
         H8        1.0000    0.48430   0.33530   0.48220   Biso      1.000     H          0.117311  
         H9        1.0000    0.27320   0.13140   0.62260   Biso      1.000     H          0.11994   
         H10       1.0000    0.04390   0.12780   0.64390   Biso      1.000     H          0.121328  
         H11       1.0000    0.85310   0.00210   0.51780   Biso      1.000     H          0.117308  
         H12       1.0000    0.72680   0.34940   0.85820   Biso      1.000     H          0.119955  
         H13       1.0000    0.95610   0.60000   0.08390   Biso      1.000     H          0.121325  
         H14       1.0000    0.04390   0.40000   0.91610   Biso      1.000     H          0.121325  
         H15       1.0000    0.50880   0.13140   0.85820   Biso      1.000     H          0.119945  
         H16       1.0000    0.48390   0.12780   0.08390   Biso      1.000     H          0.121328  
         H17       1.0000    0.48430   0.00210   0.14900   Biso      1.000     H          0.117309  
         H18       1.0000    0.49120   0.34940   0.62260   Biso      1.000     H          0.119941  
         H19       1.0000    0.51610   0.60000   0.64390   Biso      1.000     H          0.121356  
         H20       1.0000    0.51570   0.66470   0.51780   Biso      1.000     H          0.117311  
         H21       1.0000    0.72680   0.86860   0.37740   Biso      1.000     H          0.11994   
         H22       1.0000    0.95610   0.87220   0.35610   Biso      1.000     H          0.121328  
         H23       1.0000    0.27320   0.65060   0.14180   Biso      1.000     H          0.119955  
         H24       1.0000    0.14690   0.66470   0.14900   Biso      1.000     H          0.117306  
         Hf1       1.0000    0.50000   0.60932   0.10932   Biso      1.000     Hf          2.169826  
         Hf2       1.0000    0.69844   0.60352   0.09492   Biso      1.000     Hf          2.126599  
         Hf3       1.0000    0.30156   0.39648   0.90508   Biso      1.000     Hf          2.126599  
         Hf4       1.0000    0.49140   0.39648   0.09492   Biso      1.000     Hf          2.12661   
         Hf5       1.0000    0.50860   0.60352   0.90508   Biso      1.000     Hf          2.12661   
         Hf6       1.0000    0.50000   0.39068   0.89068   Biso      1.000     Hf          2.169825  
         O1        1.0000    0.40500   0.55290   0.95790   Biso      1.000     O          -1.075247           
         O2        1.0000    0.59500   0.55290   0.14790   Biso      1.000     O          -1.075242           
         O3        1.0000    0.60240   0.54870   0.94630   Biso      1.000     O          -1.072948           
         O4        1.0000    0.39760   0.34390   0.94630   Biso      1.000     O          -1.072948           
         O5        1.0000    0.39760   0.45130   0.05370   Biso      1.000     O          -1.072948           
         O6        1.0000    0.60240   0.65610   0.05370   Biso      1.000     O          -1.072948           
         O7        1.0000    0.34840   0.58100   0.08660   Biso      1.000     O          -0.543084           
         O8        1.0000    0.22060   0.44330   0.95650   Biso      1.000     O          -0.640782           
         O9        1.0000    0.65160   0.73820   0.23260   Biso      1.000     O          -0.543079           
         O10       1.0000    0.77940   0.73590   0.22270   Biso      1.000     O          -0.640784           
         O11       1.0000    0.50560   0.41900   0.76740   Biso      1.000     O          -0.5431   
         O12       1.0000    0.49440   0.26180   0.91340   Biso      1.000     O          -0.543102           
         O13       1.0000    0.59500   0.44710   0.04210   Biso      1.000     O          -1.075247           
         O14       1.0000    0.48680   0.26410   0.04350   Biso      1.000     O          -0.640743           
         O15       1.0000    0.65160   0.41900   0.91340   Biso      1.000     O          -0.543084           
         O16       1.0000    0.77940   0.55670   0.04350   Biso      1.000     O          -0.640782           
         O17       1.0000    0.34840   0.26180   0.76740   Biso      1.000     O          -0.543079           
         O18       1.0000    0.22060   0.26410   0.77730   Biso      1.000     O          -0.640784           
         O19       1.0000    0.49440   0.58100   0.23260   Biso      1.000     O          -0.5431   
         O20       1.0000    0.48680   0.44330   0.22270   Biso      1.000     O          -0.640749           
         O21       1.0000    0.50560   0.73820   0.08660   Biso      1.000     O          -0.543102           
         O22       1.0000    0.51320   0.73590   0.95650   Biso      1.000     O          -0.640743           
         O23       1.0000    0.51320   0.55670   0.77730   Biso      1.000     O          -0.640749           
         O24       1.0000    0.40500   0.44710   0.85210   Biso      1.000     O          -1.075242 