
##########################################################################
#               Crystallographic Information Format file
#               Produced by PyCifRW module
#
#  This is a CIF file.  CIF has been adopted by the International
#  Union of Crystallography as the standard for data archiving and
#  transmission.
#
#  For information on this file format, follow the CIF links at
#  http://www.iucr.org
##########################################################################

data_image0

_cell_length_a                          15.123
_cell_length_b                          17.4814
_cell_length_c                          17.4814
_cell_angle_alpha                       79.2167
_cell_angle_beta                        64.3708
_cell_angle_gamma                       64.3708
_symmetry_space_group_name_H-M          'P 1'
_symmetry_int_tables_number             1
loop_
  _symmetry_equiv_pos_as_xyz
         'x, y, z' 
loop_
  _atom_site_label
  _atom_site_occupancy
  _atom_site_fract_x
  _atom_site_fract_y
  _atom_site_fract_z
  _atom_site_thermal_displace_type
  _atom_site_B_iso_or_equiv
  _atom_site_type_symbol
  _atom_site_charge
         C1        1.0000    0.27200   0.30200   0.57200   Biso      1.000     C          -0.541769           
         C2        1.0000    0.93350   0.02700   0.75100   Biso      1.000     C          0.039116  
         C3        1.0000    0.86000   0.00030   0.73590   Biso      1.000     C          0.550712  
         C4        1.0000    0.03980   0.08890   0.72270   Biso      1.000     C          0.309309  
         C5        1.0000    0.10360   0.14700   0.68300   Biso      1.000     C          -0.003457           
         C6        1.0000    0.18870   0.12370   0.60450   Biso      1.000     C          -0.148017           
         C7        1.0000    0.24430   0.17550   0.56410   Biso      1.000     C          -0.168308           
         C8        1.0000    0.21480   0.25060   0.60220   Biso      1.000     C          0.234955  
         C9        1.0000    0.12980   0.27390   0.68070   Biso      1.000     C          -0.161642           
         C10       1.0000    0.07420   0.22210   0.72110   Biso      1.000     C          -0.132946           
         C11       1.0000    0.95270   0.02170   0.82250   Biso      1.000     C          -0.056512           
         C12       1.0000    0.30760   0.51570   0.59490   Biso      1.000     C          0.65799   
         C13       1.0000    0.21150   0.47300   0.74900   Biso      1.000     C          0.039563  
         C14       1.0000    0.09620   0.49970   0.76410   Biso      1.000     C          0.549405  
         C15       1.0000    0.35140   0.41110   0.77730   Biso      1.000     C          0.308637  
         C16       1.0000    0.43360   0.35300   0.81700   Biso      1.000     C          -0.003728           
         C17       1.0000    0.41690   0.37630   0.89550   Biso      1.000     C          -0.146282           
         C18       1.0000    0.48390   0.32450   0.93590   Biso      1.000     C          -0.170365           
         C19       1.0000    0.56760   0.24940   0.89780   Biso      1.000     C          0.234534  
         C20       1.0000    0.58440   0.22610   0.81930   Biso      1.000     C          -0.164084           
         C21       1.0000    0.51740   0.27790   0.77890   Biso      1.000     C          -0.131092           
         C22       1.0000    0.29690   0.47830   0.67750   Biso      1.000     C          -0.055708           
         C23       1.0000    0.64600   0.19800   0.92800   Biso      1.000     C          -0.540602           
         C24       1.0000    0.91820   0.98430   0.90510   Biso      1.000     C          0.654022  
         C25       1.0000    0.97440   0.32250   0.97830   Biso      1.000     C          -0.0568   
         C26       1.0000    0.81050   0.31930   0.77390   Biso      1.000     C          -0.162823           
         C27       1.0000    0.81700   0.39780   0.75060   Biso      1.000     C          0.23475   
         C28       1.0000    0.80840   0.43590   0.67550   Biso      1.000     C          -0.169123           
         C29       1.0000    0.79320   0.39550   0.62370   Biso      1.000     C          -0.145641           
         C30       1.0000    0.78660   0.31700   0.64700   Biso      1.000     C          -0.002228           
         C31       1.0000    0.76250   0.27730   0.58890   Biso      1.000     C          0.307238  
         C32       1.0000    0.59590   0.26410   0.50030   Biso      1.000     C          0.551801  
         C33       1.0000    0.68450   0.24900   0.52700   Biso      1.000     C          0.03907   
         C34       1.0000    0.77520   0.17750   0.52170   Biso      1.000     C          -0.0548   
         C35       1.0000    0.90250   0.40510   0.01570   Biso      1.000     C          0.653033  
         C36       1.0000    0.82330   0.09490   0.48430   Biso      1.000     C          0.656301  
         C37       1.0000    0.29630   0.22110   0.77790   Biso      1.000     C          -0.133698           
         C38       1.0000    0.40370   0.18070   0.72610   Biso      1.000     C          -0.16364  
         C39       1.0000    0.46540   0.10220   0.74940   Biso      1.000     C          0.235371  
         C40       1.0000    0.41980   0.06410   0.82450   Biso      1.000     C          -0.170694           
         C41       1.0000    0.31240   0.10450   0.87630   Biso      1.000     C          -0.147856           
         C42       1.0000    0.25060   0.18300   0.85300   Biso      1.000     C          -0.002724           
         C43       1.0000    0.12870   0.22270   0.91110   Biso      1.000     C          0.308091  
         C44       1.0000    0.86030   0.23590   0.99970   Biso      1.000     C          0.552     
         C45       1.0000    0.96050   0.25100   0.97300   Biso      1.000     C          0.039798  
         C46       1.0000    0.57400   0.07200   0.69800   Biso      1.000     C          -0.54141  
         C47       1.0000    0.09750   0.59490   0.98430   Biso      1.000     C          0.653033  
         C48       1.0000    0.02560   0.67750   0.02170   Biso      1.000     C          -0.056801           
         C49       1.0000    0.03950   0.74900   0.02700   Biso      1.000     C          0.039798  
         C50       1.0000    0.96020   0.91110   0.27730   Biso      1.000     C          0.309309  
         C51       1.0000    0.89640   0.85300   0.31700   Biso      1.000     C          -0.003457           
         C52       1.0000    0.81130   0.87630   0.39550   Biso      1.000     C          -0.148017           
         C53       1.0000    0.75570   0.82450   0.43590   Biso      1.000     C          -0.168308           
         C54       1.0000    0.78520   0.74940   0.39780   Biso      1.000     C          0.234955  
         C55       1.0000    0.87020   0.72610   0.31930   Biso      1.000     C          -0.161642           
         C56       1.0000    0.92580   0.77790   0.27890   Biso      1.000     C          -0.132946           
         C57       1.0000    0.72800   0.69800   0.42800   Biso      1.000     C          -0.541769           
         C58       1.0000    0.69240   0.48430   0.40510   Biso      1.000     C          0.65799   
         C59       1.0000    0.14000   0.99970   0.26410   Biso      1.000     C          0.550712  
         C60       1.0000    0.70310   0.52170   0.32250   Biso      1.000     C          -0.05571  
         C61       1.0000    0.90380   0.50030   0.23590   Biso      1.000     C          0.549405  
         C62       1.0000    0.64860   0.58890   0.22270   Biso      1.000     C          0.308637  
         C63       1.0000    0.56640   0.64700   0.18300   Biso      1.000     C          -0.003728           
         C64       1.0000    0.58310   0.62370   0.10450   Biso      1.000     C          -0.146282           
         C65       1.0000    0.51610   0.67550   0.06410   Biso      1.000     C          -0.170365           
         C66       1.0000    0.43240   0.75060   0.10220   Biso      1.000     C          0.234534  
         C67       1.0000    0.41560   0.77390   0.18070   Biso      1.000     C          -0.164084           
         C68       1.0000    0.48260   0.72210   0.22110   Biso      1.000     C          -0.131092           
         C69       1.0000    0.35400   0.80200   0.07200   Biso      1.000     C          -0.540602           
         C70       1.0000    0.78850   0.52700   0.25100   Biso      1.000     C          0.039565  
         C71       1.0000    0.06650   0.97300   0.24900   Biso      1.000     C          0.039116  
         C72       1.0000    0.04730   0.97830   0.17750   Biso      1.000     C          -0.056512           
         C73       1.0000    0.08180   0.01570   0.09490   Biso      1.000     C          0.654022  
         C74       1.0000    0.13970   0.76410   0.00030   Biso      1.000     C          0.552     
         C75       1.0000    0.87130   0.77730   0.08890   Biso      1.000     C          0.308091  
         C76       1.0000    0.74940   0.81700   0.14700   Biso      1.000     C          -0.002724           
         C77       1.0000    0.68760   0.89550   0.12370   Biso      1.000     C          -0.147857           
         C78       1.0000    0.58020   0.93590   0.17550   Biso      1.000     C          -0.170694           
         C79       1.0000    0.53460   0.89780   0.25060   Biso      1.000     C          0.235372  
         C80       1.0000    0.59630   0.81930   0.27390   Biso      1.000     C          -0.16364  
         C81       1.0000    0.70370   0.77890   0.22210   Biso      1.000     C          -0.133698           
         C82       1.0000    0.42600   0.92800   0.30200   Biso      1.000     C          -0.54141  
         C83       1.0000    0.17670   0.90510   0.51570   Biso      1.000     C          0.656301  
         C84       1.0000    0.22480   0.82250   0.47830   Biso      1.000     C          -0.054802           
         C85       1.0000    0.31550   0.75100   0.47300   Biso      1.000     C          0.039073  
         C86       1.0000    0.40410   0.73590   0.49970   Biso      1.000     C          0.551801  
         C87       1.0000    0.23750   0.72270   0.41110   Biso      1.000     C          0.307238  
         C88       1.0000    0.21340   0.68300   0.35300   Biso      1.000     C          -0.002228           
         C89       1.0000    0.20680   0.60450   0.37630   Biso      1.000     C          -0.145641           
         C90       1.0000    0.19160   0.56410   0.32450   Biso      1.000     C          -0.169123           
         C91       1.0000    0.18300   0.60220   0.24940   Biso      1.000     C          0.23475   
         C92       1.0000    0.18950   0.68070   0.22610   Biso      1.000     C          -0.162822           
         C93       1.0000    0.20470   0.72110   0.27790   Biso      1.000     C          -0.133646           
         C94       1.0000    0.15600   0.57200   0.19800   Biso      1.000     C          -0.542772           
         C95       1.0000    0.79530   0.27890   0.72210   Biso      1.000     C          -0.133646           
         C96       1.0000    0.84400   0.42800   0.80200   Biso      1.000     C          -0.542772           
         Cd1       1.0000    0.12791   0.41184   0.93368   Biso      1.000     Cd          0.953613  
         Cd2       1.0000    0.97343   0.08816   0.56632   Biso      1.000     Cd          0.953584  
         Cd3       1.0000    0.06159   0.06632   0.91184   Biso      1.000     Cd          0.954067  
         Cd4       1.0000    0.53975   0.43368   0.58816   Biso      1.000     Cd          0.954028  
         Cd5       1.0000    0.87209   0.58816   0.06632   Biso      1.000     Cd          0.953613  
         Cd6       1.0000    0.02657   0.91184   0.43368   Biso      1.000     Cd          0.953584  
         Cd7       1.0000    0.93841   0.93368   0.08816   Biso      1.000     Cd          0.954067  
         Cd8       1.0000    0.46025   0.56632   0.41184   Biso      1.000     Cd          0.954028  
         H1        1.0000    0.35030   0.85900   0.06520   Biso      1.000     H          0.163742  
         H2        1.0000    0.91220   0.38830   0.80170   Biso      1.000     H          0.171426  
         H3        1.0000    0.80590   0.98190   0.90730   Biso      1.000     H          0.434078  
         H4        1.0000    0.20840   0.07340   0.57900   Biso      1.000     H          0.107319  
         H5        1.0000    0.30110   0.16000   0.51160   Biso      1.000     H          0.124704  
         H6        1.0000    0.11000   0.32420   0.70620   Biso      1.000     H          0.122933  
         H7        1.0000    0.30050   0.30170   0.61170   Biso      1.000     H          0.171848  
         H8        1.0000    0.32960   0.28080   0.51820   Biso      1.000     H          0.169772  
         H9        1.0000    0.22550   0.35900   0.56520   Biso      1.000     H          0.162766  
         H10       1.0000    0.79070   0.43480   0.85900   Biso      1.000     H          0.16297   
         H11       1.0000    0.19510   0.51810   0.59270   Biso      1.000     H          0.432972  
         H12       1.0000    0.36080   0.42660   0.92100   Biso      1.000     H          0.107025  
         H13       1.0000    0.01720   0.23780   0.77360   Biso      1.000     H          0.105783  
         H14       1.0000    0.84780   0.48180   0.78080   Biso      1.000     H          0.171344  
         H15       1.0000    0.78740   0.42100   0.57340   Biso      1.000     H          0.107164  
         H16       1.0000    0.81620   0.29380   0.82420   Biso      1.000     H          0.122046  
         H17       1.0000    0.81270   0.48840   0.66000   Biso      1.000     H          0.12426   
         H18       1.0000    0.47270   0.34000   0.98840   Biso      1.000     H          0.12525   
         H19       1.0000    0.71320   0.09270   0.48190   Biso      1.000     H          0.43634   
         H20       1.0000    0.60220   0.11170   0.69830   Biso      1.000     H          0.171206  
         H21       1.0000    0.58450   0.06520   0.64100   Biso      1.000     H          0.162921  
         H22       1.0000    0.61040   0.01820   0.71920   Biso      1.000     H          0.170223  
         H23       1.0000    0.28610   0.80170   0.11170   Biso      1.000     H          0.170791  
         H24       1.0000    0.43420   0.20620   0.67580   Biso      1.000     H          0.123505  
         H25       1.0000    0.46110   0.01160   0.84000   Biso      1.000     H          0.125669  
         H26       1.0000    0.28180   0.07900   0.92660   Biso      1.000     H          0.108557  
         H27       1.0000    0.78780   0.40730   0.01810   Biso      1.000     H          0.438314  
         H28       1.0000    0.79080   0.22640   0.73780   Biso      1.000     H          0.10706   
         H29       1.0000    0.64040   0.17580   0.79380   Biso      1.000     H          0.123561  
         H30       1.0000    0.25500   0.27360   0.76220   Biso      1.000     H          0.106892  
         H31       1.0000    0.62860   0.21920   0.98180   Biso      1.000     H          0.169748  
         H32       1.0000    0.19410   0.01810   0.09270   Biso      1.000     H          0.434078  
         H33       1.0000    0.52860   0.26220   0.72640   Biso      1.000     H          0.105223  
         H34       1.0000    0.69890   0.84000   0.48840   Biso      1.000     H          0.124704  
         H35       1.0000    0.89000   0.67580   0.29380   Biso      1.000     H          0.122933  
         H36       1.0000    0.98280   0.76220   0.22640   Biso      1.000     H          0.105783  
         H37       1.0000    0.67040   0.71920   0.48180   Biso      1.000     H          0.169772  
         H38       1.0000    0.08780   0.61170   0.19830   Biso      1.000     H          0.171426  
         H39       1.0000    0.77450   0.64100   0.43480   Biso      1.000     H          0.162766  
         H40       1.0000    0.80490   0.48190   0.40730   Biso      1.000     H          0.432972  
         H41       1.0000    0.63920   0.57340   0.07900   Biso      1.000     H          0.107025  
         H42       1.0000    0.52730   0.66000   0.01160   Biso      1.000     H          0.12525   
         H43       1.0000    0.35960   0.82420   0.20620   Biso      1.000     H          0.123561  
         H44       1.0000    0.47140   0.73780   0.27360   Biso      1.000     H          0.105223  
         H45       1.0000    0.37140   0.78080   0.01820   Biso      1.000     H          0.169748  
         H46       1.0000    0.69950   0.69830   0.38830   Biso      1.000     H          0.171848  
         H47       1.0000    0.20930   0.56520   0.14100   Biso      1.000     H          0.162969  
         H48       1.0000    0.79160   0.92660   0.42100   Biso      1.000     H          0.107319  
         H49       1.0000    0.20920   0.77360   0.26220   Biso      1.000     H          0.10706   
         H50       1.0000    0.64970   0.14100   0.93480   Biso      1.000     H          0.163742  
         H51       1.0000    0.71390   0.19830   0.88830   Biso      1.000     H          0.170791  
         H52       1.0000    0.21220   0.59270   0.98190   Biso      1.000     H          0.438314  
         H53       1.0000    0.71820   0.92100   0.07340   Biso      1.000     H          0.108557  
         H54       1.0000    0.15220   0.51820   0.21920   Biso      1.000     H          0.171344  
         H55       1.0000    0.56580   0.79380   0.32420   Biso      1.000     H          0.123505  
         H56       1.0000    0.74500   0.72640   0.23780   Biso      1.000     H          0.106892  
         H57       1.0000    0.53890   0.98840   0.16000   Biso      1.000     H          0.125669  
         H58       1.0000    0.41550   0.93480   0.35900   Biso      1.000     H          0.162921  
         H59       1.0000    0.39780   0.88830   0.30170   Biso      1.000     H          0.171206  
         H60       1.0000    0.28680   0.90730   0.51810   Biso      1.000     H          0.43634   
         H61       1.0000    0.21260   0.57900   0.42660   Biso      1.000     H          0.107164  
         H62       1.0000    0.18730   0.51160   0.34000   Biso      1.000     H          0.124259  
         H63       1.0000    0.18380   0.70620   0.17580   Biso      1.000     H          0.122046  
         H64       1.0000    0.38960   0.98180   0.28080   Biso      1.000     H          0.170223  
         N1        1.0000    0.75360   0.57200   0.18900   Biso      1.000     N          -0.370781           
         N2        1.0000    0.61310   0.56300   0.30520   Biso      1.000     N          -0.388534           
         N3        1.0000    0.01460   0.92800   0.31100   Biso      1.000     N          -0.369617           
         N4        1.0000    0.98130   0.93700   0.19480   Biso      1.000     N          -0.387907           
         N5        1.0000    0.32560   0.68900   0.42800   Biso      1.000     N          -0.370343           
         N6        1.0000    0.17610   0.80520   0.43700   Biso      1.000     N          -0.388354           
         N7        1.0000    0.94260   0.81100   0.07200   Biso      1.000     N          -0.370256           
         N8        1.0000    0.91830   0.69480   0.06300   Biso      1.000     N          -0.387278           
         N9        1.0000    0.38690   0.43700   0.69480   Biso      1.000     N          -0.388534           
         N10       1.0000    0.98540   0.07200   0.68900   Biso      1.000     N          -0.369617           
         N11       1.0000    0.01870   0.06300   0.80520   Biso      1.000     N          -0.387907           
         N12       1.0000    0.67440   0.31100   0.57200   Biso      1.000     N          -0.370343           
         N13       1.0000    0.82390   0.19480   0.56300   Biso      1.000     N          -0.388354           
         N14       1.0000    0.05740   0.18900   0.92800   Biso      1.000     N          -0.370256           
         N15       1.0000    0.08170   0.30520   0.93700   Biso      1.000     N          -0.387278           
         N16       1.0000    0.24640   0.42800   0.81100   Biso      1.000     N          -0.370781           
         O1        1.0000    0.19480   0.57820   0.95040   Biso      1.000     O          -0.484514           
         O2        1.0000    0.22750   0.70260   0.96160   Biso      1.000     O          -0.613599           
         O3        1.0000    0.12960   0.83340   0.01440   Biso      1.000     O          -0.57099  
         O4        1.0000    0.08750   0.95300   0.51880   Biso      1.000     O          -0.508788           
         O5        1.0000    0.22340   0.92180   0.54960   Biso      1.000     O          -0.483391           
         O6        1.0000    0.39170   0.79740   0.53840   Biso      1.000     O          -0.612719           
         O7        1.0000    0.14520   0.04960   0.07820   Biso      1.000     O          -0.480019           
         O8        1.0000    0.04050   0.01880   0.04700   Biso      1.000     O          -0.507584           
         O9        1.0000    0.05930   0.54700   0.98120   Biso      1.000     O          -0.506064           
         O10       1.0000    0.18910   0.03840   0.20260   Biso      1.000     O          -0.613513           
         O11       1.0000    0.14400   0.98560   0.33340   Biso      1.000     O          -0.569631           
         O12       1.0000    0.60630   0.48120   0.45300   Biso      1.000     O          -0.509578           
         O13       1.0000    0.77300   0.45040   0.42180   Biso      1.000     O          -0.48048  
         O14       1.0000    0.47740   0.66660   0.48560   Biso      1.000     O          -0.570909           
         O15       1.0000    0.03700   0.48560   0.83340   Biso      1.000     O          -0.569426           
         O16       1.0000    0.39370   0.51880   0.54700   Biso      1.000     O          -0.509577           
         O17       1.0000    0.22700   0.54960   0.57820   Biso      1.000     O          -0.48048  
         O18       1.0000    0.85600   0.01440   0.66660   Biso      1.000     O          -0.569631           
         O19       1.0000    0.81090   0.96160   0.79740   Biso      1.000     O          -0.613513           
         O20       1.0000    0.85480   0.95040   0.92180   Biso      1.000     O          -0.480019           
         O21       1.0000    0.95950   0.98120   0.95300   Biso      1.000     O          -0.507584           
         O22       1.0000    0.52260   0.33340   0.51440   Biso      1.000     O          -0.570909           
         O23       1.0000    0.60830   0.20260   0.46160   Biso      1.000     O          -0.612719           
         O24       1.0000    0.77660   0.07820   0.45040   Biso      1.000     O          -0.483391           
         O25       1.0000    0.91250   0.04700   0.48120   Biso      1.000     O          -0.508788           
         O26       1.0000    0.87040   0.16660   0.98560   Biso      1.000     O          -0.57099  
         O27       1.0000    0.77250   0.29740   0.03840   Biso      1.000     O          -0.613599           
         O28       1.0000    0.80520   0.42180   0.04960   Biso      1.000     O          -0.484514           
         O29       1.0000    0.94070   0.45300   0.01880   Biso      1.000     O          -0.506064           
         O30       1.0000    0.93010   0.46160   0.29740   Biso      1.000     O          -0.611757           
         O31       1.0000    0.06990   0.53840   0.70260   Biso      1.000     O          -0.611757           
         O32       1.0000    0.96300   0.51440   0.16660   Biso      1.000     O          -0.569426 